# generated using pymatgen
data_ZnH6C16O9
_symmetry_space_group_name_H-M   'P 1'
_cell_length_a   9.57410000
_cell_length_b   11.44030000
_cell_length_c   25.67400000
_cell_angle_alpha   90.00000000
_cell_angle_beta   90.00000000
_cell_angle_gamma   90.00000000
_symmetry_Int_Tables_number   1
_chemical_formula_structural   ZnH6C16O9
_chemical_formula_sum   'Zn4 H24 C64 O36'
_cell_volume   2812.08801413
_cell_formula_units_Z   4
loop_
 _symmetry_equiv_pos_site_id
 _symmetry_equiv_pos_as_xyz
  1  'x, y, z'
loop_
 _atom_site_type_symbol
 _atom_site_label
 _atom_site_symmetry_multiplicity
 _atom_site_fract_x
 _atom_site_fract_y
 _atom_site_fract_z
 _atom_site_occupancy
 _atom_site_charge
  Zn  Zn1  1  0.713140  0.000000  0.000000  1.0  1.0498
  Zn  Zn2  1  0.213140  0.500000  0.000000  1.0  1.0521
  Zn  Zn3  1  0.286860  0.000000  0.500000  1.0  1.0495
  Zn  Zn4  1  0.786860  0.500000  0.500000  1.0  1.0517
  H  H5  1  0.800900  0.892000  0.149600  1.0  0.1207
  H  H6  1  0.839700  0.809100  0.229300  1.0  0.1596
  H  H7  1  0.121000  0.592700  0.164300  1.0  0.1395
  H  H8  1  0.300900  0.392000  0.149600  1.0  0.1207
  H  H9  1  0.339700  0.309100  0.229300  1.0  0.1596
  H  H10  1  0.621000  0.092700  0.164300  1.0  0.1395
  H  H11  1  0.199100  0.108000  0.649600  1.0  0.1208
  H  H12  1  0.160300  0.190900  0.729300  1.0  0.1586
  H  H13  1  0.879000  0.407300  0.664300  1.0  0.1394
  H  H14  1  0.699100  0.608000  0.649600  1.0  0.1208
  H  H15  1  0.660300  0.690900  0.729300  1.0  0.1586
  H  H16  1  0.379000  0.907300  0.664300  1.0  0.1394
  H  H17  1  0.199100  0.892000  0.350400  1.0  0.1206
  H  H18  1  0.160300  0.809100  0.270700  1.0  0.1592
  H  H19  1  0.879000  0.592700  0.335700  1.0  0.139
  H  H20  1  0.699100  0.392000  0.350400  1.0  0.1206
  H  H21  1  0.660300  0.309100  0.270700  1.0  0.1592
  H  H22  1  0.379000  0.092700  0.335700  1.0  0.139
  H  H23  1  0.800900  0.108000  0.850400  1.0  0.1204
  H  H24  1  0.839700  0.190900  0.770700  1.0  0.1596
  H  H25  1  0.121000  0.407300  0.835700  1.0  0.1394
  H  H26  1  0.300900  0.608000  0.850400  1.0  0.1204
  H  H27  1  0.339700  0.690900  0.770700  1.0  0.1596
  H  H28  1  0.621000  0.907300  0.835700  1.0  0.1394
  C  C29  1  0.940400  0.800000  0.108800  1.0  -0.095
  C  C30  1  0.867400  0.833100  0.152600  1.0  -0.0213
  C  C31  1  0.888500  0.783100  0.200200  1.0  -0.1988
  C  C32  1  0.984200  0.693000  0.204200  1.0  0.258
  C  C33  1  0.058900  0.654800  0.161400  1.0  -0.0929
  C  C34  1  0.039000  0.712200  0.113100  1.0  -0.0518
  C  C35  1  0.914700  0.863500  0.058600  1.0  0.7261
  C  C36  1  0.128200  0.665600  0.069300  1.0  0.7295
  C  C37  1  0.440400  0.300000  0.108800  1.0  -0.095
  C  C38  1  0.367400  0.333100  0.152600  1.0  -0.0213
  C  C39  1  0.388500  0.283100  0.200200  1.0  -0.1988
  C  C40  1  0.484200  0.193000  0.204200  1.0  0.258
  C  C41  1  0.558900  0.154800  0.161400  1.0  -0.0929
  C  C42  1  0.539000  0.212200  0.113100  1.0  -0.0518
  C  C43  1  0.414700  0.363500  0.058600  1.0  0.7261
  C  C44  1  0.628200  0.165600  0.069300  1.0  0.7295
  C  C45  1  0.059600  0.200000  0.608800  1.0  -0.0949
  C  C46  1  0.132600  0.166900  0.652600  1.0  -0.0207
  C  C47  1  0.111500  0.216900  0.700200  1.0  -0.1978
  C  C48  1  0.015800  0.307000  0.704200  1.0  0.2569
  C  C49  1  0.941100  0.345200  0.661400  1.0  -0.094
  C  C50  1  0.961000  0.287800  0.613100  1.0  -0.0515
  C  C51  1  0.085300  0.136500  0.558600  1.0  0.725
  C  C52  1  0.871800  0.334400  0.569300  1.0  0.7289
  C  C53  1  0.559600  0.700000  0.608800  1.0  -0.0949
  C  C54  1  0.632600  0.666900  0.652600  1.0  -0.0207
  C  C55  1  0.611500  0.716900  0.700200  1.0  -0.1978
  C  C56  1  0.515800  0.807000  0.704200  1.0  0.2569
  C  C57  1  0.441100  0.845200  0.661400  1.0  -0.094
  C  C58  1  0.461000  0.787800  0.613100  1.0  -0.0515
  C  C59  1  0.585300  0.636500  0.558600  1.0  0.725
  C  C60  1  0.371800  0.834400  0.569300  1.0  0.7289
  C  C61  1  0.059600  0.800000  0.391200  1.0  -0.095
  C  C62  1  0.132600  0.833100  0.347400  1.0  -0.0206
  C  C63  1  0.111500  0.783100  0.299800  1.0  -0.1975
  C  C64  1  0.015800  0.693000  0.295800  1.0  0.258
  C  C65  1  0.941100  0.654800  0.338600  1.0  -0.0924
  C  C66  1  0.961000  0.712200  0.386900  1.0  -0.051
  C  C67  1  0.085300  0.863500  0.441400  1.0  0.7263
  C  C68  1  0.871800  0.665600  0.430700  1.0  0.7282
  C  C69  1  0.559600  0.300000  0.391200  1.0  -0.095
  C  C70  1  0.632600  0.333100  0.347400  1.0  -0.0206
  C  C71  1  0.611500  0.283100  0.299800  1.0  -0.1975
  C  C72  1  0.515800  0.193000  0.295800  1.0  0.258
  C  C73  1  0.441100  0.154800  0.338600  1.0  -0.0924
  C  C74  1  0.461000  0.212200  0.386900  1.0  -0.051
  C  C75  1  0.585300  0.363500  0.441400  1.0  0.7263
  C  C76  1  0.371800  0.165600  0.430700  1.0  0.7282
  C  C77  1  0.940400  0.200000  0.891200  1.0  -0.0945
  C  C78  1  0.867400  0.166900  0.847400  1.0  -0.0209
  C  C79  1  0.888500  0.216900  0.799800  1.0  -0.1982
  C  C80  1  0.984200  0.307000  0.795800  1.0  0.257
  C  C81  1  0.058900  0.345200  0.838600  1.0  -0.0937
  C  C82  1  0.039000  0.287800  0.886900  1.0  -0.0514
  C  C83  1  0.914700  0.136500  0.941400  1.0  0.7268
  C  C84  1  0.128200  0.334400  0.930700  1.0  0.7295
  C  C85  1  0.440400  0.700000  0.891200  1.0  -0.0945
  C  C86  1  0.367400  0.666900  0.847400  1.0  -0.0209
  C  C87  1  0.388500  0.716900  0.799800  1.0  -0.1982
  C  C88  1  0.484200  0.807000  0.795800  1.0  0.257
  C  C89  1  0.558900  0.845200  0.838600  1.0  -0.0937
  C  C90  1  0.539000  0.787800  0.886900  1.0  -0.0514
  C  C91  1  0.414700  0.636500  0.941400  1.0  0.7268
  C  C92  1  0.628200  0.834400  0.930700  1.0  0.7295
  O  O93  1  0.797400  0.912900  0.056000  1.0  -0.5584
  O  O94  1  0.006900  0.863000  0.024300  1.0  -0.4806
  O  O95  1  0.069000  0.594200  0.037810  1.0  -0.5664
  O  O96  1  0.253200  0.690500  0.068300  1.0  -0.4584
  O  O97  1  0.297400  0.412900  0.056000  1.0  -0.5584
  O  O98  1  0.506900  0.363000  0.024300  1.0  -0.4806
  O  O99  1  0.569000  0.094200  0.037810  1.0  -0.5664
  O  O100  1  0.753200  0.190500  0.068300  1.0  -0.4589
  O  O101  1  0.202600  0.087100  0.556000  1.0  -0.5589
  O  O102  1  0.993100  0.137000  0.524300  1.0  -0.4821
  O  O103  1  0.931000  0.405800  0.537810  1.0  -0.5666
  O  O104  1  0.746800  0.309500  0.568300  1.0  -0.4584
  O  O105  1  0.702600  0.587100  0.556000  1.0  -0.5589
  O  O106  1  0.493100  0.637000  0.524300  1.0  -0.4821
  O  O107  1  0.431000  0.905800  0.537810  1.0  -0.5666
  O  O108  1  0.246800  0.809500  0.568300  1.0  -0.4589
  O  O109  1  0.202600  0.912900  0.444000  1.0  -0.5587
  O  O110  1  0.993100  0.863000  0.475700  1.0  -0.482
  O  O111  1  0.931000  0.594200  0.462190  1.0  -0.5656
  O  O112  1  0.746800  0.690500  0.431700  1.0  -0.4591
  O  O113  1  0.702600  0.412900  0.444000  1.0  -0.5587
  O  O114  1  0.493100  0.363000  0.475700  1.0  -0.482
  O  O115  1  0.431000  0.094200  0.462190  1.0  -0.5656
  O  O116  1  0.246800  0.190500  0.431700  1.0  -0.4595
  O  O117  1  0.797400  0.087100  0.944000  1.0  -0.5586
  O  O118  1  0.006900  0.137000  0.975700  1.0  -0.483
  O  O119  1  0.069000  0.405800  0.962190  1.0  -0.566
  O  O120  1  0.253200  0.309500  0.931700  1.0  -0.459
  O  O121  1  0.297400  0.587100  0.944000  1.0  -0.5586
  O  O122  1  0.506900  0.637000  0.975700  1.0  -0.483
  O  O123  1  0.569000  0.905800  0.962190  1.0  -0.566
  O  O124  1  0.753200  0.809500  0.931700  1.0  -0.4595
  O  O125  1  0.000000  0.626800  0.250000  1.0  -0.2657
  O  O126  1  0.500000  0.126800  0.250000  1.0  -0.2657
  O  O127  1  0.000000  0.373200  0.750000  1.0  -0.2661
  O  O128  1  0.500000  0.873200  0.750000  1.0  -0.2661
