# generated using pymatgen
data_Zn2H30C40N4O9
_symmetry_space_group_name_H-M   'P 1'
_cell_length_a   12.09950000
_cell_length_b   14.00770000
_cell_length_c   14.00770000
_cell_angle_alpha   97.54620000
_cell_angle_beta   100.08300000
_cell_angle_gamma   79.91680000
_symmetry_Int_Tables_number   1
_chemical_formula_structural   Zn2H30C40N4O9
_chemical_formula_sum   'Zn4 H60 C80 N8 O18'
_cell_volume   2288.89560504
_cell_formula_units_Z   2
loop_
 _symmetry_equiv_pos_site_id
 _symmetry_equiv_pos_as_xyz
  1  'x, y, z'
loop_
 _atom_site_type_symbol
 _atom_site_label
 _atom_site_symmetry_multiplicity
 _atom_site_fract_x
 _atom_site_fract_y
 _atom_site_fract_z
 _atom_site_occupancy
 _atom_site_charge
  Zn  Zn1  1  0.100650  0.230150  0.816090  1.0  0.8831
  Zn  Zn2  1  0.399350  0.816090  0.230150  1.0  0.8825
  Zn  Zn3  1  0.899350  0.769850  0.183910  1.0  0.8834
  Zn  Zn4  1  0.600650  0.183910  0.769850  1.0  0.883
  H  H5  1  0.035800  0.338100  0.153300  1.0  0.1134
  H  H6  1  0.944300  0.323300  0.281300  1.0  0.1167
  H  H7  1  0.681900  0.241000  0.092600  1.0  0.1205
  H  H8  1  0.877500  0.344500  0.769500  1.0  0.0845
  H  H9  1  0.773700  0.439000  0.655400  1.0  0.1204
  H  H10  1  0.004000  0.344400  0.482000  1.0  0.1236
  H  H11  1  0.108400  0.255000  0.604000  1.0  0.0798
  H  H12  1  0.835000  0.440300  0.416500  1.0  0.0985
  H  H13  1  0.834200  0.530900  0.494500  1.0  0.0909
  H  H14  1  0.342000  0.207300  0.910100  1.0  0.0888
  H  H15  1  0.486100  0.296500  0.961100  1.0  0.1252
  H  H16  1  0.281600  0.527200  0.859200  1.0  0.1023
  H  H17  1  0.140600  0.434500  0.814500  1.0  0.0722
  H  H18  1  0.480200  0.541100  0.911500  1.0  0.0918
  H  H19  1  0.566900  0.446300  0.933300  1.0  0.097
  H  H20  1  0.464200  0.153300  0.338100  1.0  0.1147
  H  H21  1  0.555700  0.281300  0.323300  1.0  0.1164
  H  H22  1  0.818100  0.092600  0.241000  1.0  0.1184
  H  H23  1  0.622500  0.769500  0.344500  1.0  0.0825
  H  H24  1  0.726300  0.655400  0.439000  1.0  0.1196
  H  H25  1  0.496000  0.482000  0.344400  1.0  0.123
  H  H26  1  0.391600  0.604000  0.255000  1.0  0.0798
  H  H27  1  0.665000  0.416500  0.440300  1.0  0.1001
  H  H28  1  0.665800  0.494500  0.530900  1.0  0.0919
  H  H29  1  0.158000  0.910100  0.207300  1.0  0.0883
  H  H30  1  0.013900  0.961100  0.296500  1.0  0.1243
  H  H31  1  0.218400  0.859200  0.527200  1.0  0.1008
  H  H32  1  0.359400  0.814500  0.434500  1.0  0.0725
  H  H33  1  0.019800  0.911500  0.541100  1.0  0.0923
  H  H34  1  0.933100  0.933300  0.446300  1.0  0.097
  H  H35  1  0.964200  0.661900  0.846700  1.0  0.1137
  H  H36  1  0.055700  0.676700  0.718700  1.0  0.1159
  H  H37  1  0.318100  0.759000  0.907400  1.0  0.1219
  H  H38  1  0.122500  0.655500  0.230500  1.0  0.084
  H  H39  1  0.226300  0.561000  0.344600  1.0  0.1196
  H  H40  1  0.996000  0.655600  0.518000  1.0  0.1237
  H  H41  1  0.891600  0.745000  0.396000  1.0  0.0797
  H  H42  1  0.165000  0.559700  0.583500  1.0  0.0983
  H  H43  1  0.165800  0.469100  0.505500  1.0  0.092
  H  H44  1  0.658000  0.792700  0.089900  1.0  0.0886
  H  H45  1  0.513900  0.703500  0.038900  1.0  0.1251
  H  H46  1  0.718400  0.472800  0.140800  1.0  0.1017
  H  H47  1  0.859400  0.565500  0.185500  1.0  0.0719
  H  H48  1  0.519800  0.458900  0.088500  1.0  0.0917
  H  H49  1  0.433100  0.553700  0.066700  1.0  0.0971
  H  H50  1  0.535800  0.846700  0.661900  1.0  0.1134
  H  H51  1  0.444300  0.718700  0.676700  1.0  0.1166
  H  H52  1  0.181900  0.907400  0.759000  1.0  0.119
  H  H53  1  0.377500  0.230500  0.655500  1.0  0.082
  H  H54  1  0.273700  0.344600  0.561000  1.0  0.119
  H  H55  1  0.504000  0.518000  0.655600  1.0  0.1235
  H  H56  1  0.608400  0.396000  0.745000  1.0  0.0796
  H  H57  1  0.335000  0.583500  0.559700  1.0  0.0995
  H  H58  1  0.334200  0.505500  0.469100  1.0  0.0911
  H  H59  1  0.842000  0.089900  0.792700  1.0  0.0875
  H  H60  1  0.986100  0.038900  0.703500  1.0  0.1244
  H  H61  1  0.781600  0.140800  0.472800  1.0  0.102
  H  H62  1  0.640600  0.185500  0.565500  1.0  0.0726
  H  H63  1  0.980200  0.088500  0.458900  1.0  0.0922
  H  H64  1  0.066900  0.066700  0.553700  1.0  0.0964
  C  C65  1  0.807800  0.268740  0.027060  1.0  -0.0452
  C  C66  1  0.914600  0.296200  0.045000  1.0  -0.0736
  C  C67  1  0.965100  0.317700  0.140700  1.0  -0.0434
  C  C68  1  0.910200  0.309000  0.217400  1.0  -0.2313
  C  C69  1  0.806000  0.279170  0.199030  1.0  0.271
  C  C70  1  0.753500  0.259980  0.104620  1.0  -0.2012
  C  C71  1  0.741800  0.261730  0.926470  1.0  0.66
  C  C72  1  0.981600  0.300900  0.965300  1.0  0.6732
  C  C73  1  0.905400  0.345500  0.711900  1.0  0.1919
  C  C74  1  0.841900  0.401400  0.642800  1.0  -0.22
  C  C75  1  0.877200  0.402800  0.554800  1.0  0.1608
  C  C76  1  0.977000  0.346900  0.540700  1.0  -0.2253
  C  C77  1  0.039600  0.292840  0.614760  1.0  0.1685
  C  C78  1  0.811800  0.466800  0.478800  1.0  -0.164
  C  C79  1  0.329100  0.272900  0.900100  1.0  0.1806
  C  C80  1  0.416600  0.325900  0.929900  1.0  -0.2253
  C  C81  1  0.401100  0.423300  0.913300  1.0  0.1527
  C  C82  1  0.296200  0.461900  0.870500  1.0  -0.223
  C  C83  1  0.211500  0.405600  0.843600  1.0  0.186
  C  C84  1  0.495300  0.484300  0.947300  1.0  -0.176
  C  C85  1  0.692200  0.027060  0.268740  1.0  -0.0485
  C  C86  1  0.585400  0.045000  0.296200  1.0  -0.0767
  C  C87  1  0.534900  0.140700  0.317700  1.0  -0.0433
  C  C88  1  0.589800  0.217400  0.309000  1.0  -0.2368
  C  C89  1  0.694000  0.199030  0.279170  1.0  0.2699
  C  C90  1  0.746500  0.104620  0.259980  1.0  -0.1977
  C  C91  1  0.758200  0.926470  0.261730  1.0  0.6608
  C  C92  1  0.518400  0.965300  0.300900  1.0  0.6722
  C  C93  1  0.594600  0.711900  0.345500  1.0  0.1922
  C  C94  1  0.658100  0.642800  0.401400  1.0  -0.2234
  C  C95  1  0.622800  0.554800  0.402800  1.0  0.1617
  C  C96  1  0.523000  0.540700  0.346900  1.0  -0.2436
  C  C97  1  0.460400  0.614760  0.292840  1.0  0.168
  C  C98  1  0.688200  0.478800  0.466800  1.0  -0.1649
  C  C99  1  0.170900  0.900100  0.272900  1.0  0.1828
  C  C100  1  0.083400  0.929900  0.325900  1.0  -0.2232
  C  C101  1  0.098900  0.913300  0.423300  1.0  0.1498
  C  C102  1  0.203800  0.870500  0.461900  1.0  -0.2231
  C  C103  1  0.288500  0.843600  0.405600  1.0  0.1853
  C  C104  1  0.004700  0.947300  0.484300  1.0  -0.1735
  C  C105  1  0.192200  0.731260  0.972940  1.0  -0.0443
  C  C106  1  0.085400  0.703800  0.955000  1.0  -0.0755
  C  C107  1  0.034900  0.682300  0.859300  1.0  -0.0429
  C  C108  1  0.089800  0.691000  0.782600  1.0  -0.2296
  C  C109  1  0.194000  0.720830  0.800970  1.0  0.271
  C  C110  1  0.246500  0.740020  0.895380  1.0  -0.2024
  C  C111  1  0.258200  0.738270  0.073530  1.0  0.6602
  C  C112  1  0.018400  0.699100  0.034700  1.0  0.6729
  C  C113  1  0.094600  0.654500  0.288100  1.0  0.193
  C  C114  1  0.158100  0.598600  0.357200  1.0  -0.2215
  C  C115  1  0.122800  0.597200  0.445200  1.0  0.1603
  C  C116  1  0.023000  0.653100  0.459300  1.0  -0.2274
  C  C117  1  0.960400  0.707160  0.385240  1.0  0.1697
  C  C118  1  0.188200  0.533200  0.521200  1.0  -0.1639
  C  C119  1  0.670900  0.727100  0.099900  1.0  0.1843
  C  C120  1  0.583400  0.674100  0.070100  1.0  -0.2229
  C  C121  1  0.598900  0.576700  0.086700  1.0  0.152
  C  C122  1  0.703800  0.538100  0.129500  1.0  -0.2236
  C  C123  1  0.788500  0.594400  0.156400  1.0  0.1861
  C  C124  1  0.504700  0.515700  0.052700  1.0  -0.1764
  C  C125  1  0.307800  0.972940  0.731260  1.0  -0.0481
  C  C126  1  0.414600  0.955000  0.703800  1.0  -0.075
  C  C127  1  0.465100  0.859300  0.682300  1.0  -0.0444
  C  C128  1  0.410200  0.782600  0.691000  1.0  -0.2355
  C  C129  1  0.306000  0.800970  0.720830  1.0  0.269
  C  C130  1  0.253500  0.895380  0.740020  1.0  -0.1961
  C  C131  1  0.241800  0.073530  0.738270  1.0  0.6604
  C  C132  1  0.481600  0.034700  0.699100  1.0  0.6723
  C  C133  1  0.405400  0.288100  0.654500  1.0  0.1929
  C  C134  1  0.341900  0.357200  0.598600  1.0  -0.222
  C  C135  1  0.377200  0.445200  0.597200  1.0  0.1615
  C  C136  1  0.477000  0.459300  0.653100  1.0  -0.2435
  C  C137  1  0.539600  0.385240  0.707160  1.0  0.1687
  C  C138  1  0.311800  0.521200  0.533200  1.0  -0.1647
  C  C139  1  0.829100  0.099900  0.727100  1.0  0.1824
  C  C140  1  0.916600  0.070100  0.674100  1.0  -0.2263
  C  C141  1  0.901100  0.086700  0.576700  1.0  0.1499
  C  C142  1  0.796200  0.129500  0.538100  1.0  -0.2234
  C  C143  1  0.711500  0.156400  0.594400  1.0  0.1851
  C  C144  1  0.995300  0.052700  0.515700  1.0  -0.1736
  N  N145  1  0.004800  0.292920  0.700280  1.0  -0.358
  N  N146  1  0.226400  0.311300  0.857340  1.0  -0.347
  N  N147  1  0.495200  0.700280  0.292920  1.0  -0.3605
  N  N148  1  0.273600  0.857340  0.311300  1.0  -0.349
  N  N149  1  0.995200  0.707080  0.299720  1.0  -0.3589
  N  N150  1  0.773600  0.688700  0.142660  1.0  -0.3458
  N  N151  1  0.504800  0.299720  0.707080  1.0  -0.3584
  N  N152  1  0.726400  0.142660  0.688700  1.0  -0.3477
  O  O153  1  0.678200  0.195340  0.905000  1.0  -0.6069
  O  O154  1  0.748200  0.318840  0.869980  1.0  -0.5729
  O  O155  1  0.995900  0.224750  0.906690  1.0  -0.6071
  O  O156  1  0.016500  0.375900  0.957900  1.0  -0.5735
  O  O157  1  0.821800  0.905000  0.195340  1.0  -0.6134
  O  O158  1  0.751800  0.869980  0.318840  1.0  -0.5731
  O  O159  1  0.504100  0.906690  0.224750  1.0  -0.6078
  O  O160  1  0.483500  0.957900  0.375900  1.0  -0.5695
  O  O161  1  0.321800  0.804660  0.095000  1.0  -0.6039
  O  O162  1  0.251800  0.681160  0.130020  1.0  -0.5726
  O  O163  1  0.004100  0.775250  0.093310  1.0  -0.6073
  O  O164  1  0.983500  0.624100  0.042100  1.0  -0.5726
  O  O165  1  0.178200  0.095000  0.804660  1.0  -0.612
  O  O166  1  0.248200  0.130020  0.681160  1.0  -0.5736
  O  O167  1  0.495900  0.093310  0.775250  1.0  -0.6081
  O  O168  1  0.516500  0.042100  0.624100  1.0  -0.5681
  O  O169  1  0.750000  0.278100  0.278100  1.0  -0.2849
  O  O170  1  0.250000  0.721900  0.721900  1.0  -0.2837
