# generated using pymatgen
data_ZnH11C18(NO2)2
_symmetry_space_group_name_H-M   'P 1'
_cell_length_a   10.30200000
_cell_length_b   11.87600000
_cell_length_c   32.26600000
_cell_angle_alpha   90.00000000
_cell_angle_beta   90.00000000
_cell_angle_gamma   90.00000000
_symmetry_Int_Tables_number   1
_chemical_formula_structural   ZnH11C18(NO2)2
_chemical_formula_sum   'Zn8 H88 C144 N16 O32'
_cell_volume   3947.63384683
_cell_formula_units_Z   8
loop_
 _symmetry_equiv_pos_site_id
 _symmetry_equiv_pos_as_xyz
  1  'x, y, z'
loop_
 _atom_site_type_symbol
 _atom_site_label
 _atom_site_symmetry_multiplicity
 _atom_site_fract_x
 _atom_site_fract_y
 _atom_site_fract_z
 _atom_site_occupancy
 _atom_site_charge
  Zn  Zn1  1  0.614750  0.832430  0.043710  1.0  0.9539
  Zn  Zn2  1  0.876360  0.044930  0.647480  1.0  0.948
  Zn  Zn3  1  0.885250  0.167570  0.543710  1.0  0.9541
  Zn  Zn4  1  0.623640  0.955070  0.147480  1.0  0.9483
  Zn  Zn5  1  0.385250  0.332430  0.456290  1.0  0.9538
  Zn  Zn6  1  0.123640  0.544930  0.852520  1.0  0.9479
  Zn  Zn7  1  0.114750  0.667570  0.956290  1.0  0.9532
  Zn  Zn8  1  0.376360  0.455070  0.352520  1.0  0.9486
  H  H9  1  0.235700  0.918600  0.043000  1.0  0.1035
  H  H10  1  0.012800  0.919200  0.038800  1.0  0.101
  H  H11  1  0.878200  0.804700  0.170900  1.0  0.0925
  H  H12  1  0.981100  0.744400  0.229400  1.0  0.1023
  H  H13  1  0.205500  0.726500  0.230500  1.0  0.1101
  H  H14  1  0.325300  0.780500  0.174700  1.0  0.0985
  H  H15  1  0.520800  0.234000  0.063500  1.0  0.1173
  H  H16  1  0.498200  0.410900  0.034100  1.0  0.1152
  H  H17  1  0.663600  0.655200  0.134800  1.0  0.108
  H  H18  1  0.742300  0.631500  0.200300  1.0  0.0945
  H  H19  1  0.763300  0.453200  0.229100  1.0  0.1098
  H  H20  1  0.704800  0.298000  0.191700  1.0  0.1046
  H  H21  1  0.544200  0.064500  0.792800  1.0  0.1145
  H  H22  1  0.458500  0.998800  0.854700  1.0  0.1021
  H  H23  1  0.816200  0.956900  0.900000  1.0  0.1065
  H  H24  1  0.902700  0.022000  0.838600  1.0  0.1068
  H  H25  1  0.710200  0.985200  0.728000  1.0  0.1102
  H  H26  1  0.985900  0.210900  0.716300  1.0  0.1114
  H  H27  1  0.921000  0.211500  0.789100  1.0  0.1415
  H  H28  1  0.735200  0.916200  0.958700  1.0  0.1028
  H  H29  1  0.371800  0.841200  0.983200  1.0  0.1059
  H  H30  1  0.379100  0.909500  0.912000  1.0  0.1257
  H  H31  1  0.264300  0.081400  0.543000  1.0  0.1032
  H  H32  1  0.487200  0.080800  0.538800  1.0  0.1009
  H  H33  1  0.621800  0.195300  0.670900  1.0  0.0953
  H  H34  1  0.518900  0.255600  0.729400  1.0  0.1024
  H  H35  1  0.294500  0.273500  0.730500  1.0  0.1097
  H  H36  1  0.174700  0.219500  0.674700  1.0  0.0986
  H  H37  1  0.979200  0.766000  0.563500  1.0  0.1179
  H  H38  1  0.001800  0.589100  0.534100  1.0  0.115
  H  H39  1  0.836400  0.344800  0.634800  1.0  0.1077
  H  H40  1  0.757700  0.368500  0.700300  1.0  0.095
  H  H41  1  0.736700  0.546800  0.729100  1.0  0.1077
  H  H42  1  0.795200  0.702000  0.691700  1.0  0.1048
  H  H43  1  0.955800  0.935500  0.292800  1.0  0.114
  H  H44  1  0.041500  0.001200  0.354700  1.0  0.1015
  H  H45  1  0.683800  0.043100  0.400000  1.0  0.1059
  H  H46  1  0.597300  0.978000  0.338600  1.0  0.1055
  H  H47  1  0.789800  0.014800  0.228000  1.0  0.1103
  H  H48  1  0.514100  0.789100  0.216300  1.0  0.1116
  H  H49  1  0.579000  0.788500  0.289100  1.0  0.1392
  H  H50  1  0.764800  0.083800  0.458700  1.0  0.1035
  H  H51  1  0.128200  0.158800  0.483200  1.0  0.106
  H  H52  1  0.120900  0.090500  0.412000  1.0  0.1252
  H  H53  1  0.764300  0.418600  0.457000  1.0  0.1034
  H  H54  1  0.987200  0.419200  0.461200  1.0  0.1013
  H  H55  1  0.121800  0.304700  0.329100  1.0  0.0947
  H  H56  1  0.018900  0.244400  0.270600  1.0  0.1015
  H  H57  1  0.794500  0.226500  0.269500  1.0  0.1103
  H  H58  1  0.674700  0.280500  0.325300  1.0  0.098
  H  H59  1  0.479200  0.734000  0.436500  1.0  0.1176
  H  H60  1  0.501800  0.910900  0.465900  1.0  0.1151
  H  H61  1  0.336400  0.155200  0.365200  1.0  0.1079
  H  H62  1  0.257700  0.131500  0.299700  1.0  0.0949
  H  H63  1  0.236700  0.953200  0.270900  1.0  0.1082
  H  H64  1  0.295200  0.798000  0.308300  1.0  0.1051
  H  H65  1  0.455800  0.564500  0.707200  1.0  0.1141
  H  H66  1  0.541500  0.498800  0.645300  1.0  0.1011
  H  H67  1  0.183800  0.456900  0.600000  1.0  0.106
  H  H68  1  0.097300  0.522000  0.661400  1.0  0.1061
  H  H69  1  0.289800  0.485200  0.772000  1.0  0.1105
  H  H70  1  0.014100  0.710900  0.783700  1.0  0.1115
  H  H71  1  0.079000  0.711500  0.710900  1.0  0.1393
  H  H72  1  0.264800  0.416200  0.541300  1.0  0.1043
  H  H73  1  0.628200  0.341200  0.516800  1.0  0.1057
  H  H74  1  0.620900  0.409500  0.588000  1.0  0.1252
  H  H75  1  0.735700  0.581400  0.957000  1.0  0.1039
  H  H76  1  0.512800  0.580800  0.961200  1.0  0.1013
  H  H77  1  0.378200  0.695300  0.829100  1.0  0.0927
  H  H78  1  0.481100  0.755600  0.770600  1.0  0.1015
  H  H79  1  0.705500  0.773500  0.769500  1.0  0.1099
  H  H80  1  0.825300  0.719500  0.825300  1.0  0.0983
  H  H81  1  0.020800  0.266000  0.936500  1.0  0.1176
  H  H82  1  0.998200  0.089100  0.965900  1.0  0.1153
  H  H83  1  0.163600  0.844800  0.865200  1.0  0.1076
  H  H84  1  0.242300  0.868500  0.799700  1.0  0.0944
  H  H85  1  0.263300  0.046800  0.770900  1.0  0.1103
  H  H86  1  0.204800  0.202000  0.808300  1.0  0.1049
  H  H87  1  0.044200  0.435500  0.207200  1.0  0.1135
  H  H88  1  0.958500  0.501200  0.145300  1.0  0.1018
  H  H89  1  0.316200  0.543100  0.100000  1.0  0.1062
  H  H90  1  0.402700  0.478000  0.161400  1.0  0.106
  H  H91  1  0.210200  0.514800  0.272000  1.0  0.1108
  H  H92  1  0.485900  0.289100  0.283700  1.0  0.1118
  H  H93  1  0.421000  0.288500  0.210900  1.0  0.144
  H  H94  1  0.235200  0.583800  0.041300  1.0  0.1031
  H  H95  1  0.871800  0.658800  0.016800  1.0  0.1054
  H  H96  1  0.879100  0.590500  0.088000  1.0  0.1258
  C  C97  1  0.251500  0.868300  0.101870  1.0  -0.1494
  C  C98  1  0.187400  0.898300  0.066150  1.0  -0.0437
  C  C99  1  0.052500  0.899200  0.063630  1.0  -0.047
  C  C100  1  0.976500  0.870900  0.097260  1.0  -0.1682
  C  C101  1  0.037900  0.835700  0.135420  1.0  0.0594
  C  C102  1  0.968400  0.801500  0.171190  1.0  -0.113
  C  C103  1  0.029600  0.763900  0.206120  1.0  -0.1006
  C  C104  1  0.164300  0.754700  0.207040  1.0  -0.1025
  C  C105  1  0.235500  0.787200  0.173600  1.0  -0.1026
  C  C106  1  0.177200  0.831000  0.137090  1.0  0.0578
  C  C107  1  0.397400  0.881200  0.102590  1.0  0.7092
  C  C108  1  0.832800  0.875700  0.090760  1.0  0.6909
  C  C109  1  0.597000  0.284000  0.117330  1.0  -0.1114
  C  C110  1  0.547100  0.297100  0.078290  1.0  -0.0842
  C  C111  1  0.534900  0.403900  0.060320  1.0  -0.0842
  C  C112  1  0.576600  0.498800  0.080970  1.0  -0.1305
  C  C113  1  0.631100  0.488300  0.121650  1.0  0.0423
  C  C114  1  0.670400  0.583100  0.145790  1.0  -0.1217
  C  C115  1  0.717800  0.568700  0.184920  1.0  -0.0804
  C  C116  1  0.730300  0.461400  0.202450  1.0  -0.0992
  C  C117  1  0.693900  0.369200  0.180240  1.0  -0.1212
  C  C118  1  0.640200  0.379300  0.140240  1.0  0.0296
  C  C119  1  0.596600  0.168400  0.136460  1.0  0.6721
  C  C120  1  0.556100  0.610300  0.059770  1.0  0.6569
  C  C121  1  0.731800  0.049600  0.809890  1.0  0.1158
  C  C122  1  0.598900  0.042900  0.814330  1.0  -0.1475
  C  C123  1  0.548000  0.003400  0.851350  1.0  -0.1127
  C  C124  1  0.628300  0.971100  0.883210  1.0  0.1233
  C  C125  1  0.761600  0.978400  0.878430  1.0  -0.1236
  C  C126  1  0.813200  0.017400  0.841820  1.0  -0.1133
  C  C127  1  0.770400  0.041300  0.733920  1.0  0.1515
  C  C128  1  0.921900  0.165500  0.727950  1.0  0.0387
  C  C129  1  0.886900  0.166700  0.768160  1.0  -0.1241
  C  C130  1  0.646000  0.906100  0.956070  1.0  0.1751
  C  C131  1  0.445700  0.865200  0.969270  1.0  0.0459
  C  C132  1  0.449300  0.902500  0.929920  1.0  -0.125
  C  C133  1  0.248500  0.131700  0.601870  1.0  -0.1482
  C  C134  1  0.312600  0.101700  0.566150  1.0  -0.0415
  C  C135  1  0.447500  0.100800  0.563630  1.0  -0.0385
  C  C136  1  0.523500  0.129100  0.597260  1.0  -0.1679
  C  C137  1  0.462100  0.164300  0.635420  1.0  0.0596
  C  C138  1  0.531600  0.198500  0.671190  1.0  -0.115
  C  C139  1  0.470400  0.236100  0.706120  1.0  -0.1002
  C  C140  1  0.335700  0.245300  0.707040  1.0  -0.1055
  C  C141  1  0.264500  0.212800  0.673600  1.0  -0.1026
  C  C142  1  0.322800  0.169000  0.637090  1.0  0.0583
  C  C143  1  0.102600  0.118800  0.602590  1.0  0.7049
  C  C144  1  0.667200  0.124300  0.590760  1.0  0.6905
  C  C145  1  0.903000  0.716000  0.617330  1.0  -0.1117
  C  C146  1  0.952900  0.702900  0.578290  1.0  -0.0818
  C  C147  1  0.965100  0.596100  0.560320  1.0  -0.0845
  C  C148  1  0.923400  0.501200  0.580970  1.0  -0.1312
  C  C149  1  0.868900  0.511700  0.621650  1.0  0.0426
  C  C150  1  0.829600  0.416900  0.645790  1.0  -0.1219
  C  C151  1  0.782200  0.431300  0.684920  1.0  -0.0879
  C  C152  1  0.769700  0.538600  0.702450  1.0  -0.0989
  C  C153  1  0.806100  0.630800  0.680240  1.0  -0.1202
  C  C154  1  0.859800  0.620700  0.640240  1.0  0.0293
  C  C155  1  0.903400  0.831600  0.636460  1.0  0.6713
  C  C156  1  0.943900  0.389700  0.559770  1.0  0.6637
  C  C157  1  0.768200  0.950400  0.309890  1.0  0.115
  C  C158  1  0.901100  0.957100  0.314330  1.0  -0.152
  C  C159  1  0.952000  0.996600  0.351350  1.0  -0.114
  C  C160  1  0.871700  0.028900  0.383210  1.0  0.1238
  C  C161  1  0.738400  0.021600  0.378430  1.0  -0.1202
  C  C162  1  0.686800  0.982600  0.341820  1.0  -0.1136
  C  C163  1  0.729600  0.958700  0.233920  1.0  0.1527
  C  C164  1  0.578100  0.834500  0.227950  1.0  0.0386
  C  C165  1  0.613100  0.833300  0.268160  1.0  -0.1252
  C  C166  1  0.854000  0.093900  0.456070  1.0  0.171
  C  C167  1  0.054300  0.134800  0.469270  1.0  0.0467
  C  C168  1  0.050700  0.097500  0.429920  1.0  -0.1265
  C  C169  1  0.748500  0.368300  0.398130  1.0  -0.1485
  C  C170  1  0.812600  0.398300  0.433850  1.0  -0.0445
  C  C171  1  0.947500  0.399200  0.436370  1.0  -0.0392
  C  C172  1  0.023500  0.370900  0.402740  1.0  -0.1686
  C  C173  1  0.962100  0.335700  0.364580  1.0  0.0605
  C  C174  1  0.031600  0.301500  0.328810  1.0  -0.1148
  C  C175  1  0.970400  0.263900  0.293880  1.0  -0.0988
  C  C176  1  0.835700  0.254700  0.292960  1.0  -0.1055
  C  C177  1  0.764500  0.287200  0.326400  1.0  -0.1029
  C  C178  1  0.822800  0.331000  0.362910  1.0  0.058
  C  C179  1  0.602600  0.381200  0.397410  1.0  0.707
  C  C180  1  0.167200  0.375700  0.409240  1.0  0.6926
  C  C181  1  0.403000  0.784000  0.382670  1.0  -0.111
  C  C182  1  0.452900  0.797100  0.421710  1.0  -0.0794
  C  C183  1  0.465100  0.903900  0.439680  1.0  -0.0923
  C  C184  1  0.423400  0.998800  0.419030  1.0  -0.1277
  C  C185  1  0.368900  0.988300  0.378350  1.0  0.0438
  C  C186  1  0.329600  0.083100  0.354210  1.0  -0.1213
  C  C187  1  0.282200  0.068700  0.315080  1.0  -0.0834
  C  C188  1  0.269700  0.961400  0.297550  1.0  -0.1027
  C  C189  1  0.306100  0.869200  0.319760  1.0  -0.1275
  C  C190  1  0.359800  0.879300  0.359760  1.0  0.0294
  C  C191  1  0.403400  0.668400  0.363540  1.0  0.6695
  C  C192  1  0.443900  0.110300  0.440230  1.0  0.6623
  C  C193  1  0.268200  0.549600  0.690110  1.0  0.1151
  C  C194  1  0.401100  0.542900  0.685670  1.0  -0.1479
  C  C195  1  0.452000  0.503400  0.648650  1.0  -0.1138
  C  C196  1  0.371700  0.471100  0.616790  1.0  0.1232
  C  C197  1  0.238400  0.478400  0.621570  1.0  -0.1217
  C  C198  1  0.186800  0.517400  0.658180  1.0  -0.1116
  C  C199  1  0.229600  0.541300  0.766080  1.0  0.1519
  C  C200  1  0.078100  0.665500  0.772050  1.0  0.0392
  C  C201  1  0.113100  0.666667  0.731840  1.0  -0.1262
  C  C202  1  0.354000  0.406100  0.543930  1.0  0.1713
  C  C203  1  0.554300  0.365200  0.530730  1.0  0.0441
  C  C204  1  0.550700  0.402500  0.570080  1.0  -0.1259
  C  C205  1  0.751500  0.631700  0.898130  1.0  -0.15
  C  C206  1  0.687400  0.601700  0.933850  1.0  -0.0436
  C  C207  1  0.552500  0.600800  0.936370  1.0  -0.041
  C  C208  1  0.476500  0.629100  0.902740  1.0  -0.1685
  C  C209  1  0.537900  0.664300  0.864580  1.0  0.0586
  C  C210  1  0.468400  0.698500  0.828810  1.0  -0.1145
  C  C211  1  0.529600  0.736100  0.793880  1.0  -0.0985
  C  C212  1  0.664300  0.745300  0.792960  1.0  -0.1054
  C  C213  1  0.735500  0.712800  0.826400  1.0  -0.1035
  C  C214  1  0.677200  0.669000  0.862910  1.0  0.0569
  C  C215  1  0.897400  0.618800  0.897410  1.0  0.7049
  C  C216  1  0.332800  0.624300  0.909240  1.0  0.692
  C  C217  1  0.097000  0.216000  0.882670  1.0  -0.1102
  C  C218  1  0.047100  0.202900  0.921710  1.0  -0.0811
  C  C219  1  0.034900  0.096100  0.939680  1.0  -0.0851
  C  C220  1  0.076600  0.001200  0.919030  1.0  -0.1311
  C  C221  1  0.131100  0.011700  0.878350  1.0  0.0428
  C  C222  1  0.170400  0.916900  0.854210  1.0  -0.1221
  C  C223  1  0.217800  0.931300  0.815080  1.0  -0.0823
  C  C224  1  0.230300  0.038600  0.797550  1.0  -0.1121
  C  C225  1  0.193900  0.130800  0.819760  1.0  -0.1208
  C  C226  1  0.140200  0.120700  0.859760  1.0  0.0304
  C  C227  1  0.096600  0.331600  0.863540  1.0  0.6721
  C  C228  1  0.056100  0.889700  0.940230  1.0  0.662
  C  C229  1  0.231800  0.450400  0.190110  1.0  0.1137
  C  C230  1  0.098900  0.457100  0.185670  1.0  -0.1473
  C  C231  1  0.048000  0.496600  0.148650  1.0  -0.1114
  C  C232  1  0.128300  0.528900  0.116790  1.0  0.1237
  C  C233  1  0.261600  0.521600  0.121570  1.0  -0.1229
  C  C234  1  0.313200  0.482600  0.158180  1.0  -0.1136
  C  C235  1  0.270400  0.458700  0.266080  1.0  0.151
  C  C236  1  0.421900  0.334500  0.272050  1.0  0.0391
  C  C237  1  0.386900  0.333333  0.231840  1.0  -0.1262
  C  C238  1  0.146000  0.593900  0.043930  1.0  0.1758
  C  C239  1  0.945700  0.634800  0.030730  1.0  0.0459
  C  C240  1  0.949300  0.597500  0.070080  1.0  -0.1253
  N  N241  1  0.789500  0.087110  0.771650  1.0  0.0361
  N  N242  1  0.849700  0.087530  0.706530  1.0  -0.3696
  N  N243  1  0.577000  0.928300  0.921280  1.0  0.0338
  N  N244  1  0.569900  0.868400  0.985620  1.0  -0.3825
  N  N245  1  0.710500  0.912890  0.271650  1.0  0.0374
  N  N246  1  0.650300  0.912470  0.206530  1.0  -0.3702
  N  N247  1  0.923000  0.071700  0.421280  1.0  0.0343
  N  N248  1  0.930100  0.131600  0.485620  1.0  -0.3809
  N  N249  1  0.210500  0.587110  0.728350  1.0  0.0365
  N  N250  1  0.150300  0.587530  0.793470  1.0  -0.3706
  N  N251  1  0.423000  0.428300  0.578720  1.0  0.0339
  N  N252  1  0.430100  0.368400  0.514380  1.0  -0.3812
  N  N253  1  0.289500  0.412890  0.228350  1.0  0.0357
  N  N254  1  0.349700  0.412470  0.293470  1.0  -0.3707
  N  N255  1  0.077000  0.571700  0.078720  1.0  0.0347
  N  N256  1  0.069900  0.631600  0.014380  1.0  -0.3826
  O  O257  1  0.454000  0.886810  0.136930  1.0  -0.5827
  O  O258  1  0.452980  0.892970  0.068120  1.0  -0.6146
  O  O259  1  0.756690  0.857840  0.121050  1.0  -0.6158
  O  O260  1  0.790530  0.895000  0.054640  1.0  -0.5776
  O  O261  1  0.658300  0.092360  0.116940  1.0  -0.5981
  O  O262  1  0.534300  0.149940  0.168210  1.0  -0.5949
  O  O263  1  0.452700  0.629650  0.042180  1.0  -0.5666
  O  O264  1  0.651460  0.679660  0.061740  1.0  -0.6093
  O  O265  1  0.046000  0.113190  0.636930  1.0  -0.5839
  O  O266  1  0.047020  0.107030  0.568120  1.0  -0.6142
  O  O267  1  0.743310  0.142160  0.621050  1.0  -0.6155
  O  O268  1  0.709470  0.105000  0.554640  1.0  -0.578
  O  O269  1  0.841700  0.907640  0.616940  1.0  -0.5986
  O  O270  1  0.965700  0.850060  0.668210  1.0  -0.5955
  O  O271  1  0.047300  0.370350  0.542180  1.0  -0.5682
  O  O272  1  0.848540  0.320340  0.561740  1.0  -0.6098
  O  O273  1  0.546000  0.386810  0.363070  1.0  -0.5825
  O  O274  1  0.547020  0.392970  0.431880  1.0  -0.6141
  O  O275  1  0.243310  0.357840  0.378950  1.0  -0.6162
  O  O276  1  0.209470  0.395000  0.445360  1.0  -0.5769
  O  O277  1  0.341700  0.592360  0.383060  1.0  -0.5982
  O  O278  1  0.465700  0.649940  0.331790  1.0  -0.5964
  O  O279  1  0.547300  0.129650  0.457820  1.0  -0.5665
  O  O280  1  0.348540  0.179660  0.438260  1.0  -0.6091
  O  O281  1  0.954000  0.613190  0.863070  1.0  -0.5825
  O  O282  1  0.952980  0.607030  0.931880  1.0  -0.6146
  O  O283  1  0.256690  0.642160  0.878950  1.0  -0.6151
  O  O284  1  0.290530  0.605000  0.945360  1.0  -0.5767
  O  O285  1  0.158300  0.407640  0.883060  1.0  -0.5973
  O  O286  1  0.034300  0.350060  0.831790  1.0  -0.5951
  O  O287  1  0.952700  0.870350  0.957820  1.0  -0.5682
  O  O288  1  0.151460  0.820340  0.938260  1.0  -0.6087
