# generated using pymatgen
data_Zn3H20C30(N2O3)4
_symmetry_space_group_name_H-M   'P 1'
_cell_length_a   12.03000000
_cell_length_b   12.85420000
_cell_length_c   12.85420000
_cell_angle_alpha   108.01100000
_cell_angle_beta   106.13500000
_cell_angle_gamma   106.13500000
_symmetry_Int_Tables_number   1
_chemical_formula_structural   Zn3H20C30(N2O3)4
_chemical_formula_sum   'Zn6 H40 C60 N16 O24'
_cell_volume   1665.63383651
_cell_formula_units_Z   2
loop_
 _symmetry_equiv_pos_site_id
 _symmetry_equiv_pos_as_xyz
  1  'x, y, z'
loop_
 _atom_site_type_symbol
 _atom_site_label
 _atom_site_symmetry_multiplicity
 _atom_site_fract_x
 _atom_site_fract_y
 _atom_site_fract_z
 _atom_site_occupancy
 _atom_site_charge
  Zn  Zn1  1  0.990480  0.254810  0.488770  1.0  0.8509
  Zn  Zn2  1  0.509520  0.511230  0.745190  1.0  0.8507
  Zn  Zn3  1  0.750000  0.780270  0.219730  1.0  0.9729
  Zn  Zn4  1  0.009520  0.745190  0.511230  1.0  0.8501
  Zn  Zn5  1  0.490480  0.488770  0.254810  1.0  0.8509
  Zn  Zn6  1  0.250000  0.219730  0.780270  1.0  0.9754
  H  H7  1  0.684000  0.335400  0.182600  1.0  0.1058
  H  H8  1  0.801000  0.449900  0.914100  1.0  0.1279
  H  H9  1  0.975000  0.240400  0.241600  1.0  0.1102
  H  H10  1  0.919000  0.485100  0.612900  1.0  0.098
  H  H11  1  0.962000  0.239700  0.706300  1.0  0.2048
  H  H12  1  0.770000  0.417800  0.074200  1.0  0.1151
  H  H13  1  0.749000  0.319000  0.381000  1.0  0.0989
  H  H14  1  0.868000  0.504400  0.793600  1.0  0.2396
  H  H15  1  0.930000  0.188000  0.036000  1.0  0.1113
  H  H16  1  0.974000  0.226000  0.880000  1.0  0.112
  H  H17  1  0.816000  0.817400  0.664600  1.0  0.1064
  H  H18  1  0.699000  0.085900  0.550100  1.0  0.1289
  H  H19  1  0.525000  0.758400  0.759600  1.0  0.1101
  H  H20  1  0.581000  0.387100  0.514900  1.0  0.0968
  H  H21  1  0.538000  0.293700  0.760300  1.0  0.2057
  H  H22  1  0.730000  0.925800  0.582200  1.0  0.115
  H  H23  1  0.751000  0.619000  0.681000  1.0  0.0985
  H  H24  1  0.632000  0.206400  0.495600  1.0  0.2391
  H  H25  1  0.570000  0.964000  0.812000  1.0  0.1123
  H  H26  1  0.526000  0.120000  0.774000  1.0  0.1107
  H  H27  1  0.316000  0.664600  0.817400  1.0  0.1055
  H  H28  1  0.199000  0.550100  0.085900  1.0  0.1284
  H  H29  1  0.025000  0.759600  0.758400  1.0  0.1103
  H  H30  1  0.081000  0.514900  0.387100  1.0  0.0981
  H  H31  1  0.038000  0.760300  0.293700  1.0  0.2053
  H  H32  1  0.230000  0.582200  0.925800  1.0  0.1153
  H  H33  1  0.251000  0.681000  0.619000  1.0  0.0987
  H  H34  1  0.132000  0.495600  0.206400  1.0  0.24
  H  H35  1  0.070000  0.812000  0.964000  1.0  0.1123
  H  H36  1  0.026000  0.774000  0.120000  1.0  0.1112
  H  H37  1  0.184000  0.182600  0.335400  1.0  0.1061
  H  H38  1  0.301000  0.914100  0.449900  1.0  0.13
  H  H39  1  0.475000  0.241600  0.240400  1.0  0.1099
  H  H40  1  0.419000  0.612900  0.485100  1.0  0.0966
  H  H41  1  0.462000  0.706300  0.239700  1.0  0.2064
  H  H42  1  0.270000  0.074200  0.417800  1.0  0.1147
  H  H43  1  0.249000  0.381000  0.319000  1.0  0.0976
  H  H44  1  0.368000  0.793600  0.504400  1.0  0.2416
  H  H45  1  0.430000  0.036000  0.188000  1.0  0.1132
  H  H46  1  0.474000  0.880000  0.226000  1.0  0.1114
  C  C47  1  0.918900  0.441080  0.658920  1.0  -0.0338
  C  C48  1  0.944900  0.302950  0.708850  1.0  0.1424
  C  C49  1  0.751600  0.313700  0.221500  1.0  -0.0819
  C  C50  1  0.828100  0.008490  0.385910  1.0  0.6234
  C  C51  1  0.846800  0.299850  0.069750  1.0  0.1109
  C  C52  1  0.927800  0.012170  0.330630  1.0  0.6207
  C  C53  1  0.909700  0.260690  0.249510  1.0  0.147
  C  C54  1  0.888800  0.342610  0.884390  1.0  0.0881
  C  C55  1  0.807300  0.377620  0.034780  1.0  -0.1081
  C  C56  1  0.929200  0.263050  0.919350  1.0  -0.183
  C  C57  1  0.906100  0.240810  0.011790  1.0  -0.1629
  C  C58  1  0.827600  0.398520  0.941080  1.0  -0.1374
  C  C59  1  0.893900  0.454870  0.756330  1.0  -0.0966
  C  C60  1  0.783600  0.303800  0.325000  1.0  0.0561
  C  C61  1  0.581100  0.341080  0.558920  1.0  -0.0351
  C  C62  1  0.555100  0.291150  0.697050  1.0  0.1439
  C  C63  1  0.748400  0.778500  0.686300  1.0  -0.0808
  C  C64  1  0.671900  0.614090  0.991510  1.0  0.6247
  C  C65  1  0.653200  0.930250  0.700150  1.0  0.1042
  C  C66  1  0.572200  0.669370  0.987830  1.0  0.6219
  C  C67  1  0.590300  0.750490  0.739310  1.0  0.1498
  C  C68  1  0.611200  0.115610  0.657390  1.0  0.0903
  C  C69  1  0.692700  0.965220  0.622380  1.0  -0.1056
  C  C70  1  0.570800  0.080650  0.736950  1.0  -0.1829
  C  C71  1  0.593900  0.988210  0.759190  1.0  -0.1593
  C  C72  1  0.672400  0.058920  0.601480  1.0  -0.138
  C  C73  1  0.606100  0.243670  0.545130  1.0  -0.0982
  C  C74  1  0.716400  0.675000  0.696200  1.0  0.0562
  C  C75  1  0.250000  0.343400  0.656600  1.0  0.611
  C  C76  1  0.250000  0.417700  0.582300  1.0  0.6453
  C  C77  1  0.081100  0.558920  0.341080  1.0  -0.0322
  C  C78  1  0.055100  0.697050  0.291150  1.0  0.1427
  C  C79  1  0.248400  0.686300  0.778500  1.0  -0.0824
  C  C80  1  0.171900  0.991510  0.614090  1.0  0.6257
  C  C81  1  0.153200  0.700150  0.930250  1.0  0.109
  C  C82  1  0.072200  0.987830  0.669370  1.0  0.6203
  C  C83  1  0.090300  0.739310  0.750490  1.0  0.1461
  C  C84  1  0.111200  0.657390  0.115610  1.0  0.0864
  C  C85  1  0.192700  0.622380  0.965220  1.0  -0.1074
  C  C86  1  0.070800  0.736950  0.080650  1.0  -0.1829
  C  C87  1  0.093900  0.759190  0.988210  1.0  -0.1621
  C  C88  1  0.172400  0.601480  0.058920  1.0  -0.1372
  C  C89  1  0.106100  0.545130  0.243670  1.0  -0.0985
  C  C90  1  0.216400  0.696200  0.675000  1.0  0.0568
  C  C91  1  0.418900  0.658920  0.441080  1.0  -0.0351
  C  C92  1  0.444900  0.708850  0.302950  1.0  0.1427
  C  C93  1  0.251600  0.221500  0.313700  1.0  -0.0803
  C  C94  1  0.328100  0.385910  0.008490  1.0  0.6245
  C  C95  1  0.346800  0.069750  0.299850  1.0  0.1047
  C  C96  1  0.427800  0.330630  0.012170  1.0  0.6214
  C  C97  1  0.409700  0.249510  0.260690  1.0  0.149
  C  C98  1  0.388800  0.884390  0.342610  1.0  0.0892
  C  C99  1  0.307300  0.034780  0.377620  1.0  -0.1064
  C  C100  1  0.429200  0.919350  0.263050  1.0  -0.1822
  C  C101  1  0.406100  0.011790  0.240810  1.0  -0.1523
  C  C102  1  0.327600  0.941080  0.398520  1.0  -0.1398
  C  C103  1  0.393900  0.756330  0.454870  1.0  -0.0977
  C  C104  1  0.283600  0.325000  0.303800  1.0  0.0555
  C  C105  1  0.750000  0.656600  0.343400  1.0  0.611
  C  C106  1  0.750000  0.582300  0.417700  1.0  0.6446
  N  N107  1  0.951700  0.345440  0.629360  1.0  -0.4006
  N  N108  1  0.883300  0.270290  0.343310  1.0  -0.3982
  N  N109  1  0.833700  0.286350  0.172650  1.0  0.0241
  N  N110  1  0.909700  0.365590  0.788010  1.0  0.0492
  N  N111  1  0.548300  0.370640  0.654560  1.0  -0.3997
  N  N112  1  0.616700  0.656690  0.729710  1.0  -0.4001
  N  N113  1  0.666300  0.827350  0.713650  1.0  0.0232
  N  N114  1  0.590300  0.211990  0.634410  1.0  0.0502
  N  N115  1  0.048300  0.654560  0.370640  1.0  -0.3988
  N  N116  1  0.116700  0.729710  0.656690  1.0  -0.401
  N  N117  1  0.166300  0.713650  0.827350  1.0  0.0252
  N  N118  1  0.090300  0.634410  0.211990  1.0  0.05
  N  N119  1  0.451700  0.629360  0.345440  1.0  -0.4003
  N  N120  1  0.383300  0.343310  0.270290  1.0  -0.4017
  N  N121  1  0.333700  0.172650  0.286350  1.0  0.0221
  N  N122  1  0.409700  0.788010  0.365590  1.0  0.049
  O  O123  1  0.909800  0.916280  0.250040  1.0  -0.5777
  O  O124  1  0.735700  0.911760  0.343800  1.0  -0.5721
  O  O125  1  0.848700  0.102170  0.467370  1.0  -0.5644
  O  O126  1  0.016300  0.109920  0.369620  1.0  -0.6209
  O  O127  1  0.590200  0.749960  0.083720  1.0  -0.5752
  O  O128  1  0.764300  0.656200  0.088240  1.0  -0.5731
  O  O129  1  0.651300  0.532630  0.897830  1.0  -0.5674
  O  O130  1  0.483700  0.630380  0.890080  1.0  -0.619
  O  O131  1  0.147500  0.389580  0.501040  1.0  -0.5686
  O  O132  1  0.149000  0.260850  0.631310  1.0  -0.6485
  O  O133  1  0.352500  0.498960  0.610420  1.0  -0.5695
  O  O134  1  0.351000  0.368690  0.739150  1.0  -0.6475
  O  O135  1  0.852500  0.610420  0.498960  1.0  -0.5676
  O  O136  1  0.851000  0.739150  0.368690  1.0  -0.6479
  O  O137  1  0.647500  0.501040  0.389580  1.0  -0.5696
  O  O138  1  0.649000  0.631310  0.260850  1.0  -0.6489
  O  O139  1  0.090200  0.083720  0.749960  1.0  -0.5782
  O  O140  1  0.264300  0.088240  0.656200  1.0  -0.5731
  O  O141  1  0.151300  0.897830  0.532630  1.0  -0.5676
  O  O142  1  0.983700  0.890080  0.630380  1.0  -0.6199
  O  O143  1  0.409800  0.250040  0.916280  1.0  -0.5752
  O  O144  1  0.235700  0.343800  0.911760  1.0  -0.5719
  O  O145  1  0.348700  0.467370  0.102170  1.0  -0.5645
  O  O146  1  0.516300  0.369620  0.109920  1.0  -0.6202
