# generated using pymatgen
data_Cu7Si2P8H50C78(N3O4)6
_symmetry_space_group_name_H-M   'P 1'
_cell_length_a   13.61470000
_cell_length_b   17.83960000
_cell_length_c   20.18200000
_cell_angle_alpha   90.00000000
_cell_angle_beta   94.42500000
_cell_angle_gamma   90.00000000
_symmetry_Int_Tables_number   1
_chemical_formula_structural   Cu7Si2P8H50C78(N3O4)6
_chemical_formula_sum   'Cu14 Si4 P16 H100 C156 N36 O48'
_cell_volume   4887.20891565
_cell_formula_units_Z   2
loop_
 _symmetry_equiv_pos_site_id
 _symmetry_equiv_pos_as_xyz
  1  'x, y, z'
loop_
 _atom_site_type_symbol
 _atom_site_label
 _atom_site_symmetry_multiplicity
 _atom_site_fract_x
 _atom_site_fract_y
 _atom_site_fract_z
 _atom_site_occupancy
 _atom_site_charge
  Cu  Cu1  1  0.753580  0.081410  0.371550  1.0  0.9859
  Cu  Cu2  1  0.836860  0.743870  0.255150  1.0  0.8808
  Cu  Cu3  1  0.647200  0.857270  0.302680  1.0  0.9143
  Cu  Cu4  1  0.746420  0.581410  0.128450  1.0  0.9841
  Cu  Cu5  1  0.663140  0.243870  0.244850  1.0  0.8802
  Cu  Cu6  1  0.852800  0.357270  0.197320  1.0  0.9176
  Cu  Cu7  1  0.246420  0.918590  0.628450  1.0  0.9842
  Cu  Cu8  1  0.163140  0.256130  0.744850  1.0  0.8804
  Cu  Cu9  1  0.352800  0.142730  0.697320  1.0  0.9172
  Cu  Cu10  1  0.253580  0.418590  0.871550  1.0  0.9847
  Cu  Cu11  1  0.336860  0.756130  0.755150  1.0  0.8807
  Cu  Cu12  1  0.147200  0.642730  0.802680  1.0  0.9142
  Cu  Cu13  1  0.000000  0.500000  0.000000  1.0  0.4295
  Cu  Cu14  1  0.500000  0.000000  0.500000  1.0  0.4297
  Si  Si15  1  0.693930  0.492930  0.610500  1.0  0.9326
  Si  Si16  1  0.806070  0.992930  0.889500  1.0  0.9324
  Si  Si17  1  0.306070  0.507070  0.389500  1.0  0.9323
  Si  Si18  1  0.193930  0.007070  0.110500  1.0  0.9326
  P  P19  1  0.367710  0.567550  0.815390  1.0  1.5116
  P  P20  1  0.626580  0.217100  0.404840  1.0  1.4543
  P  P21  1  0.767490  0.758210  0.402100  1.0  1.5478
  P  P22  1  0.049010  0.486170  0.844800  1.0  1.5437
  P  P23  1  0.132290  0.067550  0.684610  1.0  1.5105
  P  P24  1  0.873420  0.717100  0.095160  1.0  1.4533
  P  P25  1  0.732510  0.258210  0.097900  1.0  1.5473
  P  P26  1  0.450990  0.986170  0.655200  1.0  1.5437
  P  P27  1  0.632290  0.432450  0.184610  1.0  1.5107
  P  P28  1  0.373420  0.782900  0.595160  1.0  1.4552
  P  P29  1  0.232510  0.241790  0.597900  1.0  1.545
  P  P30  1  0.950990  0.513830  0.155200  1.0  1.5438
  P  P31  1  0.867710  0.932450  0.315390  1.0  1.5116
  P  P32  1  0.126580  0.282900  0.904840  1.0  1.4562
  P  P33  1  0.267490  0.741790  0.902100  1.0  1.5448
  P  P34  1  0.549010  0.013830  0.344800  1.0  1.5437
  H  H35  1  0.631000  0.432400  0.731600  1.0  0.0995
  H  H36  1  0.522100  0.463200  0.808100  1.0  0.119
  H  H37  1  0.399300  0.615600  0.682600  1.0  0.111
  H  H38  1  0.513100  0.587200  0.607200  1.0  0.1023
  H  H39  1  0.545500  0.376000  0.585100  1.0  0.0933
  H  H40  1  0.515500  0.280900  0.509000  1.0  0.113
  H  H41  1  0.776900  0.319700  0.439400  1.0  0.106
  H  H42  1  0.803500  0.415100  0.513800  1.0  0.0834
  H  H43  1  0.639400  0.525900  0.470400  1.0  0.0914
  H  H44  1  0.665600  0.620500  0.397000  1.0  0.1203
  H  H45  1  0.803600  0.738300  0.544200  1.0  0.1206
  H  H46  1  0.774900  0.643500  0.616900  1.0  0.0922
  H  H47  1  0.882300  0.407000  0.638100  1.0  0.0903
  H  H48  1  0.006100  0.403700  0.722800  1.0  0.1098
  H  H49  1  0.874800  0.570100  0.815100  1.0  0.1143
  H  H50  1  0.751700  0.573200  0.730400  1.0  0.0973
  H  H51  1  0.988600  0.754900  0.382200  1.0  0.0948
  H  H52  1  0.053100  0.743600  0.198900  1.0  0.1198
  H  H53  1  0.212400  0.704800  0.175500  1.0  0.1325
  H  H54  1  0.375000  0.696100  0.150200  1.0  0.1129
  H  H55  1  0.462700  0.778800  0.328400  1.0  0.1149
  H  H56  1  0.301600  0.786700  0.354600  1.0  0.1256
  H  H57  1  0.861500  0.843200  0.417500  1.0  0.4165
  H  H58  1  0.588300  0.089200  0.061300  1.0  0.1089
  H  H59  1  0.485300  0.880300  0.041600  1.0  0.1375
  H  H60  1  0.869000  0.932400  0.768400  1.0  0.0993
  H  H61  1  0.977900  0.963200  0.691900  1.0  0.119
  H  H62  1  0.100700  0.115600  0.817400  1.0  0.1107
  H  H63  1  0.986900  0.087200  0.892800  1.0  0.1023
  H  H64  1  0.954500  0.876000  0.914900  1.0  0.0928
  H  H65  1  0.984500  0.780900  0.991000  1.0  0.1131
  H  H66  1  0.723100  0.819700  0.060600  1.0  0.106
  H  H67  1  0.696500  0.915100  0.986200  1.0  0.0834
  H  H68  1  0.860600  0.025900  0.029600  1.0  0.0914
  H  H69  1  0.834400  0.120500  0.103000  1.0  0.1204
  H  H70  1  0.696400  0.238300  0.955800  1.0  0.1209
  H  H71  1  0.725100  0.143500  0.883100  1.0  0.0922
  H  H72  1  0.617700  0.907000  0.861900  1.0  0.0905
  H  H73  1  0.493900  0.903700  0.777200  1.0  0.1099
  H  H74  1  0.625200  0.070100  0.684900  1.0  0.1148
  H  H75  1  0.748300  0.073200  0.769600  1.0  0.0971
  H  H76  1  0.511400  0.254900  0.117800  1.0  0.0948
  H  H77  1  0.446900  0.243600  0.301100  1.0  0.1199
  H  H78  1  0.287600  0.204800  0.324500  1.0  0.1329
  H  H79  1  0.125000  0.196100  0.349800  1.0  0.1129
  H  H80  1  0.037300  0.278800  0.171600  1.0  0.1149
  H  H81  1  0.198400  0.286700  0.145400  1.0  0.126
  H  H82  1  0.638500  0.343200  0.082500  1.0  0.417
  H  H83  1  0.911700  0.589200  0.438700  1.0  0.1094
  H  H84  1  0.014700  0.380300  0.458400  1.0  0.1375
  H  H85  1  0.369000  0.567600  0.268400  1.0  0.0995
  H  H86  1  0.477900  0.536800  0.191900  1.0  0.1189
  H  H87  1  0.600700  0.384400  0.317400  1.0  0.1111
  H  H88  1  0.486900  0.412800  0.392800  1.0  0.1027
  H  H89  1  0.454500  0.624000  0.414900  1.0  0.0929
  H  H90  1  0.484500  0.719100  0.491000  1.0  0.1129
  H  H91  1  0.223100  0.680300  0.560600  1.0  0.1056
  H  H92  1  0.196500  0.584900  0.486200  1.0  0.0832
  H  H93  1  0.360600  0.474100  0.529600  1.0  0.0915
  H  H94  1  0.334400  0.379500  0.603000  1.0  0.1201
  H  H95  1  0.196400  0.261700  0.455800  1.0  0.1202
  H  H96  1  0.225100  0.356500  0.383100  1.0  0.0919
  H  H97  1  0.117700  0.593000  0.361900  1.0  0.0899
  H  H98  1  0.993900  0.596300  0.277200  1.0  0.11
  H  H99  1  0.125200  0.429900  0.184900  1.0  0.1151
  H  H100  1  0.248300  0.426800  0.269600  1.0  0.097
  H  H101  1  0.011400  0.245100  0.617800  1.0  0.0948
  H  H102  1  0.946900  0.256400  0.801100  1.0  0.12
  H  H103  1  0.787600  0.295200  0.824500  1.0  0.1329
  H  H104  1  0.625000  0.303900  0.849800  1.0  0.113
  H  H105  1  0.537300  0.221200  0.671600  1.0  0.1148
  H  H106  1  0.698400  0.213300  0.645400  1.0  0.1256
  H  H107  1  0.138500  0.156800  0.582500  1.0  0.4192
  H  H108  1  0.411700  0.910800  0.938700  1.0  0.1091
  H  H109  1  0.514700  0.119700  0.958400  1.0  0.1374
  H  H110  1  0.131000  0.067600  0.231600  1.0  0.0993
  H  H111  1  0.022100  0.036800  0.308100  1.0  0.1187
  H  H112  1  0.899300  0.884400  0.182600  1.0  0.1111
  H  H113  1  0.013100  0.912800  0.107200  1.0  0.1027
  H  H114  1  0.045500  0.124000  0.085100  1.0  0.0934
  H  H115  1  0.015500  0.219100  0.009000  1.0  0.1128
  H  H116  1  0.276900  0.180300  0.939400  1.0  0.1059
  H  H117  1  0.303500  0.084900  0.013800  1.0  0.0834
  H  H118  1  0.139400  0.974100  0.970400  1.0  0.0918
  H  H119  1  0.165600  0.879500  0.897000  1.0  0.12
  H  H120  1  0.303600  0.761700  0.044200  1.0  0.12
  H  H121  1  0.274900  0.856500  0.116900  1.0  0.0922
  H  H122  1  0.382300  0.093000  0.138100  1.0  0.0904
  H  H123  1  0.506100  0.096300  0.222800  1.0  0.1097
  H  H124  1  0.374800  0.929900  0.315100  1.0  0.1147
  H  H125  1  0.251700  0.926800  0.230400  1.0  0.0974
  H  H126  1  0.488600  0.745100  0.882200  1.0  0.0951
  H  H127  1  0.553100  0.756400  0.698900  1.0  0.1202
  H  H128  1  0.712400  0.795200  0.675500  1.0  0.1328
  H  H129  1  0.875000  0.803900  0.650200  1.0  0.1129
  H  H130  1  0.962700  0.721200  0.828400  1.0  0.1152
  H  H131  1  0.801600  0.713300  0.854600  1.0  0.1256
  H  H132  1  0.361500  0.656800  0.917500  1.0  0.4183
  H  H133  1  0.088300  0.410800  0.561300  1.0  0.1097
  H  H134  1  0.985300  0.619700  0.541600  1.0  0.1374
  C  C135  1  0.588300  0.508700  0.661900  1.0  -0.2683
  C  C136  1  0.586300  0.471100  0.722100  1.0  -0.0528
  C  C137  1  0.520700  0.489100  0.768000  1.0  -0.041
  C  C138  1  0.452900  0.545500  0.754900  1.0  -0.2881
  C  C139  1  0.448100  0.580200  0.693400  1.0  -0.0254
  C  C140  1  0.516100  0.562500  0.647800  1.0  -0.0419
  C  C141  1  0.677400  0.406900  0.557900  1.0  -0.1873
  C  C142  1  0.592300  0.365400  0.555300  1.0  -0.0378
  C  C143  1  0.574000  0.308000  0.509500  1.0  -0.0607
  C  C144  1  0.642400  0.291100  0.464700  1.0  -0.2557
  C  C145  1  0.728800  0.331300  0.468100  1.0  -0.0516
  C  C146  1  0.745000  0.388200  0.513300  1.0  -0.0506
  C  C147  1  0.707000  0.572400  0.552000  1.0  -0.2249
  C  C148  1  0.673600  0.568400  0.485600  1.0  -0.0538
  C  C149  1  0.689200  0.625400  0.441200  1.0  -0.0663
  C  C150  1  0.739600  0.689400  0.461900  1.0  -0.2283
  C  C151  1  0.770900  0.695300  0.528600  1.0  -0.0745
  C  C152  1  0.753900  0.637800  0.572200  1.0  -0.0445
  C  C153  1  0.802300  0.489900  0.674400  1.0  -0.314
  C  C154  1  0.879900  0.440000  0.673600  1.0  -0.0354
  C  C155  1  0.954700  0.437700  0.724700  1.0  -0.0515
  C  C156  1  0.952800  0.485900  0.778500  1.0  -0.2774
  C  C157  1  0.876500  0.536800  0.779700  1.0  -0.0343
  C  C158  1  0.802500  0.538600  0.728600  1.0  -0.036
  C  C159  1  0.024700  0.753400  0.344900  1.0  0.2556
  C  C160  1  0.057500  0.747000  0.245000  1.0  0.1623
  C  C161  1  0.241600  0.747600  0.266600  1.0  0.0994
  C  C162  1  0.262900  0.719800  0.206300  1.0  -0.1717
  C  C163  1  0.360200  0.714200  0.191500  1.0  -0.049
  C  C164  1  0.435700  0.735200  0.237600  1.0  -0.0721
  C  C165  1  0.412400  0.763200  0.297600  1.0  -0.0057
  C  C166  1  0.316300  0.768800  0.313200  1.0  -0.1436
  C  C167  1  0.538500  0.723400  0.222600  1.0  0.3268
  C  C168  1  0.681600  0.978100  0.211200  1.0  0.215
  C  C169  1  0.570600  0.907600  0.165700  1.0  0.1384
  C  C170  1  0.552300  0.053300  0.036300  1.0  -0.0344
  C  C171  1  0.543000  0.981900  0.061200  1.0  0.0051
  C  C172  1  0.491100  0.928500  0.024800  1.0  -0.0372
  C  C173  1  0.590400  0.964300  0.124500  1.0  0.1911
  C  C174  1  0.911700  0.008700  0.838100  1.0  -0.2691
  C  C175  1  0.913700  0.971100  0.777900  1.0  -0.053
  C  C176  1  0.979300  0.989100  0.732000  1.0  -0.0413
  C  C177  1  0.047100  0.045500  0.745100  1.0  -0.2881
  C  C178  1  0.051900  0.080200  0.806600  1.0  -0.0255
  C  C179  1  0.983900  0.062500  0.852200  1.0  -0.0416
  C  C180  1  0.822600  0.906900  0.942100  1.0  -0.188
  C  C181  1  0.907700  0.865400  0.944700  1.0  -0.0381
  C  C182  1  0.926000  0.808000  0.990500  1.0  -0.0625
  C  C183  1  0.857600  0.791100  0.035300  1.0  -0.2562
  C  C184  1  0.771200  0.831300  0.031900  1.0  -0.0492
  C  C185  1  0.755000  0.888200  0.986700  1.0  -0.0483
  C  C186  1  0.793000  0.072400  0.948000  1.0  -0.2236
  C  C187  1  0.826400  0.068400  0.014400  1.0  -0.0545
  C  C188  1  0.810800  0.125400  0.058800  1.0  -0.0671
  C  C189  1  0.760400  0.189400  0.038100  1.0  -0.2285
  C  C190  1  0.729100  0.195300  0.971400  1.0  -0.0753
  C  C191  1  0.746100  0.137800  0.927800  1.0  -0.0452
  C  C192  1  0.697700  0.989900  0.825600  1.0  -0.3128
  C  C193  1  0.620100  0.940000  0.826400  1.0  -0.0355
  C  C194  1  0.545300  0.937700  0.775300  1.0  -0.0516
  C  C195  1  0.547200  0.985900  0.721500  1.0  -0.2784
  C  C196  1  0.623500  0.036800  0.720300  1.0  -0.0351
  C  C197  1  0.697500  0.038600  0.771400  1.0  -0.0374
  C  C198  1  0.475300  0.253400  0.155100  1.0  0.2541
  C  C199  1  0.442500  0.247000  0.255000  1.0  0.1634
  C  C200  1  0.258400  0.247600  0.233400  1.0  0.0997
  C  C201  1  0.237100  0.219800  0.293700  1.0  -0.1717
  C  C202  1  0.139800  0.214200  0.308500  1.0  -0.0479
  C  C203  1  0.064300  0.235200  0.262400  1.0  -0.0718
  C  C204  1  0.087600  0.263200  0.202400  1.0  -0.0041
  C  C205  1  0.183700  0.268800  0.186800  1.0  -0.1452
  C  C206  1  0.961500  0.223400  0.277400  1.0  0.3265
  C  C207  1  0.818400  0.478100  0.288800  1.0  0.2152
  C  C208  1  0.929400  0.407600  0.334300  1.0  0.1387
  C  C209  1  0.947700  0.553300  0.463700  1.0  -0.032
  C  C210  1  0.957000  0.481900  0.438800  1.0  0.0052
  C  C211  1  0.008900  0.428500  0.475200  1.0  -0.0357
  C  C212  1  0.909600  0.464300  0.375500  1.0  0.1912
  C  C213  1  0.411700  0.491300  0.338100  1.0  -0.2689
  C  C214  1  0.413700  0.528900  0.277900  1.0  -0.0526
  C  C215  1  0.479300  0.510900  0.232000  1.0  -0.0409
  C  C216  1  0.547100  0.454500  0.245100  1.0  -0.288
  C  C217  1  0.551900  0.419800  0.306600  1.0  -0.0259
  C  C218  1  0.483900  0.437500  0.352200  1.0  -0.0415
  C  C219  1  0.322600  0.593100  0.442100  1.0  -0.188
  C  C220  1  0.407700  0.634600  0.444700  1.0  -0.0379
  C  C221  1  0.426000  0.692000  0.490500  1.0  -0.0635
  C  C222  1  0.357600  0.708900  0.535300  1.0  -0.2546
  C  C223  1  0.271200  0.668700  0.531900  1.0  -0.0499
  C  C224  1  0.255000  0.611800  0.486700  1.0  -0.0492
  C  C225  1  0.293000  0.427600  0.448000  1.0  -0.2234
  C  C226  1  0.326400  0.431600  0.514400  1.0  -0.0543
  C  C227  1  0.310800  0.374600  0.558800  1.0  -0.067
  C  C228  1  0.260400  0.310600  0.538100  1.0  -0.2299
  C  C229  1  0.229100  0.304700  0.471400  1.0  -0.0747
  C  C230  1  0.246100  0.362200  0.427800  1.0  -0.0445
  C  C231  1  0.197700  0.510100  0.325600  1.0  -0.3128
  C  C232  1  0.120100  0.560000  0.326400  1.0  -0.0366
  C  C233  1  0.045300  0.562300  0.275300  1.0  -0.0524
  C  C234  1  0.047200  0.514100  0.221500  1.0  -0.2783
  C  C235  1  0.123500  0.463200  0.220300  1.0  -0.0344
  C  C236  1  0.197500  0.461400  0.271400  1.0  -0.0369
  C  C237  1  0.975300  0.246600  0.655100  1.0  0.2545
  C  C238  1  0.942500  0.253000  0.755000  1.0  0.1631
  C  C239  1  0.758400  0.252400  0.733400  1.0  0.0996
  C  C240  1  0.737100  0.280200  0.793700  1.0  -0.1717
  C  C241  1  0.639800  0.285800  0.808500  1.0  -0.0481
  C  C242  1  0.564300  0.264800  0.762400  1.0  -0.0716
  C  C243  1  0.587600  0.236800  0.702400  1.0  -0.0039
  C  C244  1  0.683700  0.231200  0.686800  1.0  -0.1448
  C  C245  1  0.461500  0.276600  0.777400  1.0  0.3257
  C  C246  1  0.318400  0.021900  0.788800  1.0  0.2153
  C  C247  1  0.429400  0.092400  0.834300  1.0  0.1372
  C  C248  1  0.447700  0.946700  0.963700  1.0  -0.0314
  C  C249  1  0.457000  0.018100  0.938800  1.0  0.0053
  C  C250  1  0.508900  0.071500  0.975200  1.0  -0.0356
  C  C251  1  0.409600  0.035700  0.875500  1.0  0.1911
  C  C252  1  0.088300  0.991300  0.161900  1.0  -0.2682
  C  C253  1  0.086300  0.028900  0.222100  1.0  -0.0523
  C  C254  1  0.020700  0.010900  0.268000  1.0  -0.041
  C  C255  1  0.952900  0.954500  0.254900  1.0  -0.288
  C  C256  1  0.948100  0.919800  0.193400  1.0  -0.0261
  C  C257  1  0.016100  0.937500  0.147800  1.0  -0.0422
  C  C258  1  0.177400  0.093100  0.057900  1.0  -0.1875
  C  C259  1  0.092300  0.134600  0.055300  1.0  -0.0375
  C  C260  1  0.074000  0.192000  0.009500  1.0  -0.0623
  C  C261  1  0.142400  0.208900  0.964700  1.0  -0.2547
  C  C262  1  0.228800  0.168700  0.968100  1.0  -0.0511
  C  C263  1  0.245000  0.111800  0.013300  1.0  -0.0511
  C  C264  1  0.207000  0.927600  0.052000  1.0  -0.225
  C  C265  1  0.173600  0.931600  0.985600  1.0  -0.0538
  C  C266  1  0.189200  0.874600  0.941200  1.0  -0.066
  C  C267  1  0.239600  0.810600  0.961900  1.0  -0.2291
  C  C268  1  0.270900  0.804700  0.028600  1.0  -0.0742
  C  C269  1  0.253900  0.862200  0.072200  1.0  -0.0445
  C  C270  1  0.302300  0.010100  0.174400  1.0  -0.3138
  C  C271  1  0.379900  0.060000  0.173600  1.0  -0.0363
  C  C272  1  0.454700  0.062300  0.224700  1.0  -0.0521
  C  C273  1  0.452800  0.014100  0.278500  1.0  -0.2776
  C  C274  1  0.376500  0.963200  0.279700  1.0  -0.0337
  C  C275  1  0.302500  0.961400  0.228600  1.0  -0.0356
  C  C276  1  0.524700  0.746600  0.844900  1.0  0.2558
  C  C277  1  0.557500  0.753000  0.745000  1.0  0.1618
  C  C278  1  0.741600  0.752400  0.766600  1.0  0.0993
  C  C279  1  0.762900  0.780200  0.706300  1.0  -0.1723
  C  C280  1  0.860200  0.785800  0.691500  1.0  -0.0496
  C  C281  1  0.935700  0.764800  0.737600  1.0  -0.0721
  C  C282  1  0.912400  0.736800  0.797600  1.0  -0.0055
  C  C283  1  0.816300  0.731200  0.813200  1.0  -0.1433
  C  C284  1  0.038500  0.776600  0.722600  1.0  0.3261
  C  C285  1  0.181600  0.521900  0.711200  1.0  0.2154
  C  C286  1  0.070600  0.592400  0.665700  1.0  0.1381
  C  C287  1  0.052300  0.446700  0.536300  1.0  -0.0338
  C  C288  1  0.043000  0.518100  0.561200  1.0  0.0048
  C  C289  1  0.991100  0.571500  0.524800  1.0  -0.0372
  C  C290  1  0.090400  0.535700  0.624500  1.0  0.191
  N  N291  1  0.982000  0.748200  0.281960  1.0  -0.3709
  N  N292  1  0.120300  0.756000  0.348500  1.0  -0.3403
  N  N293  1  0.141500  0.751500  0.283700  1.0  0.1432
  N  N294  1  0.617500  0.758700  0.250230  1.0  -0.2642
  N  N295  1  0.695000  0.725000  0.225790  1.0  0.0272
  N  N296  1  0.663300  0.672200  0.183800  1.0  -0.0167
  N  N297  1  0.565300  0.670600  0.181000  1.0  -0.261
  N  N298  1  0.661400  0.010100  0.154200  1.0  -0.3883
  N  N299  1  0.628200  0.916100  0.219200  1.0  -0.2685
  N  N300  1  0.518000  0.248200  0.218040  1.0  -0.3702
  N  N301  1  0.379700  0.256000  0.151500  1.0  -0.3389
  N  N302  1  0.358500  0.251500  0.216300  1.0  0.1428
  N  N303  1  0.882500  0.258700  0.249770  1.0  -0.2645
  N  N304  1  0.805000  0.225000  0.274210  1.0  0.0279
  N  N305  1  0.836700  0.172200  0.316200  1.0  -0.0172
  N  N306  1  0.934700  0.170600  0.319000  1.0  -0.262
  N  N307  1  0.838600  0.510100  0.345800  1.0  -0.3885
  N  N308  1  0.871800  0.416100  0.280800  1.0  -0.269
  N  N309  1  0.018000  0.251800  0.718040  1.0  -0.3703
  N  N310  1  0.879700  0.244000  0.651500  1.0  -0.34
  N  N311  1  0.858500  0.248500  0.716300  1.0  0.1426
  N  N312  1  0.382500  0.241300  0.749770  1.0  -0.2649
  N  N313  1  0.305000  0.275000  0.774210  1.0  0.0284
  N  N314  1  0.336700  0.327800  0.816200  1.0  -0.0175
  N  N315  1  0.434700  0.329400  0.819000  1.0  -0.2663
  N  N316  1  0.338600  0.989900  0.845800  1.0  -0.3877
  N  N317  1  0.371800  0.083900  0.780800  1.0  -0.2691
  N  N318  1  0.482000  0.751800  0.781960  1.0  -0.3712
  N  N319  1  0.620300  0.744000  0.848500  1.0  -0.3396
  N  N320  1  0.641500  0.748500  0.783700  1.0  0.1429
  N  N321  1  0.117500  0.741300  0.750230  1.0  -0.2645
  N  N322  1  0.195000  0.775000  0.725790  1.0  0.0267
  N  N323  1  0.163300  0.827800  0.683800  1.0  -0.0168
  N  N324  1  0.065300  0.829400  0.681000  1.0  -0.263
  N  N325  1  0.161400  0.489900  0.654200  1.0  -0.3888
  N  N326  1  0.128200  0.583900  0.719200  1.0  -0.2689
  O  O327  1  0.423700  0.583200  0.881910  1.0  -0.7592
  O  O328  1  0.304600  0.497300  0.819200  1.0  -0.8521
  O  O329  1  0.305200  0.633330  0.789020  1.0  -0.8332
  O  O330  1  0.518800  0.188150  0.410170  1.0  -0.6499
  O  O331  1  0.636600  0.250520  0.337840  1.0  -0.8368
  O  O332  1  0.700600  0.156610  0.427520  1.0  -0.7746
  O  O333  1  0.810500  0.717360  0.345740  1.0  -0.8007
  O  O334  1  0.674700  0.801800  0.383710  1.0  -0.7944
  O  O335  1  0.847200  0.807900  0.440910  1.0  -0.6672
  O  O336  1  0.125200  0.430890  0.823480  1.0  -0.8042
  O  O337  1  0.086100  0.565840  0.854120  1.0  -0.8289
  O  O338  1  0.004900  0.460100  0.908330  1.0  -0.7545
  O  O339  1  0.076300  0.083200  0.618090  1.0  -0.7587
  O  O340  1  0.195400  0.997300  0.680800  1.0  -0.8501
  O  O341  1  0.194800  0.133330  0.710980  1.0  -0.8334
  O  O342  1  0.981200  0.688150  0.089830  1.0  -0.6492
  O  O343  1  0.863400  0.750520  0.162160  1.0  -0.8356
  O  O344  1  0.799400  0.656610  0.072480  1.0  -0.7739
  O  O345  1  0.689500  0.217360  0.154260  1.0  -0.7994
  O  O346  1  0.825300  0.301800  0.116290  1.0  -0.7938
  O  O347  1  0.652800  0.307900  0.059090  1.0  -0.6655
  O  O348  1  0.374800  0.930890  0.676520  1.0  -0.8015
  O  O349  1  0.413900  0.065840  0.645880  1.0  -0.8265
  O  O350  1  0.495100  0.960100  0.591670  1.0  -0.7559
  O  O351  1  0.576300  0.416800  0.118090  1.0  -0.7584
  O  O352  1  0.695400  0.502700  0.180800  1.0  -0.8509
  O  O353  1  0.694800  0.366670  0.210980  1.0  -0.8333
  O  O354  1  0.481200  0.811850  0.589830  1.0  -0.6493
  O  O355  1  0.363400  0.749480  0.662160  1.0  -0.8356
  O  O356  1  0.299400  0.843390  0.572480  1.0  -0.776
  O  O357  1  0.189500  0.282640  0.654260  1.0  -0.7992
  O  O358  1  0.325300  0.198200  0.616290  1.0  -0.7932
  O  O359  1  0.152800  0.192100  0.559090  1.0  -0.6658
  O  O360  1  0.874800  0.569110  0.176520  1.0  -0.8012
  O  O361  1  0.913900  0.434160  0.145880  1.0  -0.8263
  O  O362  1  0.995100  0.539900  0.091670  1.0  -0.7547
  O  O363  1  0.923700  0.916800  0.381910  1.0  -0.7564
  O  O364  1  0.804600  0.002700  0.319200  1.0  -0.8537
  O  O365  1  0.805200  0.866670  0.289020  1.0  -0.8331
  O  O366  1  0.018800  0.311850  0.910170  1.0  -0.6507
  O  O367  1  0.136600  0.249480  0.837840  1.0  -0.8367
  O  O368  1  0.200600  0.343390  0.927520  1.0  -0.7727
  O  O369  1  0.310500  0.782640  0.845740  1.0  -0.8011
  O  O370  1  0.174700  0.698200  0.883710  1.0  -0.7934
  O  O371  1  0.347200  0.692100  0.940910  1.0  -0.6684
  O  O372  1  0.625200  0.069110  0.323480  1.0  -0.804
  O  O373  1  0.586100  0.934160  0.354120  1.0  -0.8287
  O  O374  1  0.504900  0.039900  0.408330  1.0  -0.7543
