# generated using pymatgen
data_CdH3C2N3
_symmetry_space_group_name_H-M   'P 1'
_cell_length_a   8.56920000
_cell_length_b   8.56920000
_cell_length_c   14.62100000
_cell_angle_alpha   90.68700000
_cell_angle_beta   90.68700000
_cell_angle_gamma   90.52480000
_symmetry_Int_Tables_number   1
_chemical_formula_structural   CdH3C2N3
_chemical_formula_sum   'Cd4 H12 C8 N12'
_cell_volume   1073.43659135
_cell_formula_units_Z   4
loop_
 _symmetry_equiv_pos_site_id
 _symmetry_equiv_pos_as_xyz
  1  'x, y, z'
loop_
 _atom_site_type_symbol
 _atom_site_label
 _atom_site_symmetry_multiplicity
 _atom_site_fract_x
 _atom_site_fract_y
 _atom_site_fract_z
 _atom_site_occupancy
 _atom_site_charge
  Cd  Cd1  1  0.493480  0.506520  0.750000  1.0  0.4707
  Cd  Cd2  1  0.506520  0.493480  0.250000  1.0  0.4699
  Cd  Cd3  1  0.000000  0.500000  0.000000  1.0  0.9866
  Cd  Cd4  1  0.500000  0.000000  0.500000  1.0  0.9866
  H  H5  1  0.099640  0.186700  0.950580  1.0  0.33
  H  H6  1  0.892030  0.188790  0.946390  1.0  0.3122
  H  H7  1  0.991500  0.174000  0.053440  1.0  0.326
  H  H8  1  0.813300  0.900360  0.549420  1.0  0.3361
  H  H9  1  0.811210  0.107970  0.553610  1.0  0.3232
  H  H10  1  0.826000  0.008500  0.446560  1.0  0.3241
  H  H11  1  0.900360  0.813300  0.049420  1.0  0.3292
  H  H12  1  0.107970  0.811210  0.053610  1.0  0.3228
  H  H13  1  0.008500  0.826000  0.946560  1.0  0.3241
  H  H14  1  0.186700  0.099640  0.450580  1.0  0.3312
  H  H15  1  0.188790  0.892030  0.446390  1.0  0.3224
  H  H16  1  0.174000  0.991500  0.553440  1.0  0.3265
  C  C17  1  0.285900  0.507100  0.836400  1.0  -0.0389
  C  C18  1  0.491600  0.301000  0.658600  1.0  -0.0485
  C  C19  1  0.492900  0.714100  0.663600  1.0  -0.04
  C  C20  1  0.699000  0.508400  0.841400  1.0  -0.047
  C  C21  1  0.714100  0.492900  0.163600  1.0  -0.0392
  C  C22  1  0.508400  0.699000  0.341400  1.0  -0.0481
  C  C23  1  0.507100  0.285900  0.336400  1.0  -0.0405
  C  C24  1  0.301000  0.491600  0.158600  1.0  -0.0459
  N  N25  1  0.183500  0.511500  0.883900  1.0  -0.3711
  N  N26  1  0.199600  0.490200  0.108500  1.0  -0.3736
  N  N27  1  0.995100  0.225500  0.985700  1.0  -0.8717
  N  N28  1  0.488500  0.816500  0.616100  1.0  -0.3727
  N  N29  1  0.509800  0.800400  0.391500  1.0  -0.3746
  N  N30  1  0.774500  0.004900  0.514300  1.0  -0.8746
  N  N31  1  0.816500  0.488500  0.116100  1.0  -0.3709
  N  N32  1  0.800400  0.509800  0.891500  1.0  -0.3727
  N  N33  1  0.004900  0.774500  0.014300  1.0  -0.8712
  N  N34  1  0.511500  0.183500  0.383900  1.0  -0.3725
  N  N35  1  0.490200  0.199600  0.608500  1.0  -0.3742
  N  N36  1  0.225500  0.995100  0.485700  1.0  -0.8738
