# generated using pymatgen
data_CdH3C2N3
_symmetry_space_group_name_H-M   'P 1'
_cell_length_a   12.19510000
_cell_length_b   12.07800000
_cell_length_c   14.69210000
_cell_angle_alpha   90.00000000
_cell_angle_beta   93.43600000
_cell_angle_gamma   90.00000000
_symmetry_Int_Tables_number   1
_chemical_formula_structural   CdH3C2N3
_chemical_formula_sum   'Cd8 H24 C16 N24'
_cell_volume   2160.14479223
_cell_formula_units_Z   8
loop_
 _symmetry_equiv_pos_site_id
 _symmetry_equiv_pos_as_xyz
  1  'x, y, z'
loop_
 _atom_site_type_symbol
 _atom_site_label
 _atom_site_symmetry_multiplicity
 _atom_site_fract_x
 _atom_site_fract_y
 _atom_site_fract_z
 _atom_site_occupancy
 _atom_site_charge
  Cd  Cd1  1  0.000000  0.475770  0.250000  1.0  0.5466
  Cd  Cd2  1  0.500000  0.975770  0.250000  1.0  0.5466
  Cd  Cd3  1  0.000000  0.524230  0.750000  1.0  0.5454
  Cd  Cd4  1  0.500000  0.024230  0.750000  1.0  0.5454
  Cd  Cd5  1  0.250000  0.250000  0.000000  1.0  0.9829
  Cd  Cd6  1  0.750000  0.250000  0.500000  1.0  0.9829
  Cd  Cd7  1  0.750000  0.750000  0.000000  1.0  0.9829
  Cd  Cd8  1  0.250000  0.750000  0.500000  1.0  0.9829
  H  H9  1  0.347270  0.466460  0.013310  1.0  0.2425
  H  H10  1  0.420230  0.378590  0.093090  1.0  0.2467
  H  H11  1  0.447770  0.372910  0.975590  1.0  0.2388
  H  H12  1  0.847270  0.966460  0.013310  1.0  0.2425
  H  H13  1  0.920230  0.878590  0.093090  1.0  0.2472
  H  H14  1  0.947770  0.872910  0.975590  1.0  0.2388
  H  H15  1  0.652730  0.466460  0.486690  1.0  0.2426
  H  H16  1  0.579770  0.378590  0.406910  1.0  0.2444
  H  H17  1  0.552230  0.372910  0.524410  1.0  0.2421
  H  H18  1  0.152730  0.966460  0.486690  1.0  0.2426
  H  H19  1  0.079770  0.878590  0.406910  1.0  0.2449
  H  H20  1  0.052230  0.872910  0.524410  1.0  0.2421
  H  H21  1  0.652730  0.533540  0.986690  1.0  0.2458
  H  H22  1  0.579770  0.621410  0.906910  1.0  0.2442
  H  H23  1  0.552230  0.627090  0.024410  1.0  0.2426
  H  H24  1  0.152730  0.033540  0.986690  1.0  0.2458
  H  H25  1  0.079770  0.121410  0.906910  1.0  0.2447
  H  H26  1  0.052230  0.127090  0.024410  1.0  0.2426
  H  H27  1  0.347270  0.533540  0.513310  1.0  0.2463
  H  H28  1  0.420230  0.621410  0.593090  1.0  0.2468
  H  H29  1  0.447770  0.627090  0.475590  1.0  0.2394
  H  H30  1  0.847270  0.033540  0.513310  1.0  0.2463
  H  H31  1  0.920230  0.121410  0.593090  1.0  0.2474
  H  H32  1  0.947770  0.127090  0.475590  1.0  0.2394
  C  C33  1  0.106900  0.370600  0.170300  1.0  -0.0398
  C  C34  1  0.902000  0.579500  0.151900  1.0  -0.012
  C  C35  1  0.606900  0.870600  0.170300  1.0  -0.0398
  C  C36  1  0.402000  0.079500  0.151900  1.0  -0.012
  C  C37  1  0.893100  0.370600  0.329700  1.0  -0.0398
  C  C38  1  0.098000  0.579500  0.348100  1.0  -0.0109
  C  C39  1  0.393100  0.870600  0.329700  1.0  -0.0398
  C  C40  1  0.598000  0.079500  0.348100  1.0  -0.0109
  C  C41  1  0.893100  0.629400  0.829700  1.0  -0.0398
  C  C42  1  0.098000  0.420500  0.848100  1.0  -0.0113
  C  C43  1  0.393100  0.129400  0.829700  1.0  -0.0398
  C  C44  1  0.598000  0.920500  0.848100  1.0  -0.0113
  C  C45  1  0.106900  0.629400  0.670300  1.0  -0.0394
  C  C46  1  0.902000  0.420500  0.651900  1.0  -0.0132
  C  C47  1  0.606900  0.129400  0.670300  1.0  -0.0394
  C  C48  1  0.402000  0.920500  0.651900  1.0  -0.0132
  N  N49  1  0.156600  0.318500  0.122800  1.0  -0.3756
  N  N50  1  0.852400  0.632200  0.100200  1.0  -0.3851
  N  N51  1  0.384100  0.384800  0.023600  1.0  -0.6839
  N  N52  1  0.656600  0.818500  0.122800  1.0  -0.3756
  N  N53  1  0.352400  0.132200  0.100200  1.0  -0.3851
  N  N54  1  0.884100  0.884800  0.023600  1.0  -0.6818
  N  N55  1  0.843400  0.318500  0.377200  1.0  -0.3767
  N  N56  1  0.147600  0.632200  0.399800  1.0  -0.3843
  N  N57  1  0.615900  0.384800  0.476400  1.0  -0.6852
  N  N58  1  0.343400  0.818500  0.377200  1.0  -0.3767
  N  N59  1  0.647600  0.132200  0.399800  1.0  -0.3843
  N  N60  1  0.115900  0.884800  0.476400  1.0  -0.6831
  N  N61  1  0.843400  0.681500  0.877200  1.0  -0.3765
  N  N62  1  0.147600  0.367800  0.899800  1.0  -0.3852
  N  N63  1  0.615900  0.615200  0.976400  1.0  -0.6821
  N  N64  1  0.343400  0.181500  0.877200  1.0  -0.3765
  N  N65  1  0.647600  0.867800  0.899800  1.0  -0.3852
  N  N66  1  0.115900  0.115200  0.976400  1.0  -0.6817
  N  N67  1  0.156600  0.681500  0.622800  1.0  -0.3755
  N  N68  1  0.852400  0.367800  0.600200  1.0  -0.3863
  N  N69  1  0.384100  0.615200  0.523600  1.0  -0.6808
  N  N70  1  0.656600  0.181500  0.622800  1.0  -0.3755
  N  N71  1  0.352400  0.867800  0.600200  1.0  -0.3863
  N  N72  1  0.884100  0.115200  0.523600  1.0  -0.6803
