# generated using pymatgen
data_Cd(CN)2
_symmetry_space_group_name_H-M   'P 1'
_cell_length_a   15.16900000
_cell_length_b   16.01900000
_cell_length_c   8.86600000
_cell_angle_alpha   90.00000000
_cell_angle_beta   95.73000000
_cell_angle_gamma   90.00000000
_symmetry_Int_Tables_number   1
_chemical_formula_structural   Cd(CN)2
_chemical_formula_sum   'Cd8 C16 N16'
_cell_volume   2143.60448721
_cell_formula_units_Z   8
loop_
 _symmetry_equiv_pos_site_id
 _symmetry_equiv_pos_as_xyz
  1  'x, y, z'
loop_
 _atom_site_type_symbol
 _atom_site_label
 _atom_site_symmetry_multiplicity
 _atom_site_fract_x
 _atom_site_fract_y
 _atom_site_fract_z
 _atom_site_occupancy
 _atom_site_charge
  Cd  Cd1  1  0.629690  0.320920  0.042850  1.0  0.707
  Cd  Cd2  1  0.266450  0.352130  0.067720  1.0  0.9651
  Cd  Cd3  1  0.870310  0.820920  0.457150  1.0  0.7099
  Cd  Cd4  1  0.233550  0.852130  0.432280  1.0  0.965
  Cd  Cd5  1  0.370310  0.679080  0.957150  1.0  0.7099
  Cd  Cd6  1  0.733550  0.647870  0.932280  1.0  0.9649
  Cd  Cd7  1  0.129690  0.179080  0.542850  1.0  0.7068
  Cd  Cd8  1  0.766450  0.147870  0.567720  1.0  0.9652
  C  C9  1  0.484500  0.307700  0.053700  1.0  -0.0502
  C  C10  1  0.191600  0.244200  0.748000  1.0  0.014
  C  C11  1  0.679900  0.267200  0.835000  1.0  -0.0557
  C  C12  1  0.671200  0.453900  0.047900  1.0  -0.0234
  C  C13  1  0.015500  0.807700  0.446300  1.0  -0.0484
  C  C14  1  0.308400  0.744200  0.752000  1.0  0.0141
  C  C15  1  0.820100  0.767200  0.665000  1.0  -0.0562
  C  C16  1  0.828800  0.953900  0.452100  1.0  -0.023
  C  C17  1  0.515500  0.692300  0.946300  1.0  -0.0483
  C  C18  1  0.808400  0.755800  0.252000  1.0  0.0137
  C  C19  1  0.320100  0.732800  0.165000  1.0  -0.0561
  C  C20  1  0.328800  0.546100  0.952100  1.0  -0.0247
  C  C21  1  0.984500  0.192300  0.553700  1.0  -0.05
  C  C22  1  0.691600  0.255800  0.248000  1.0  0.0137
  C  C23  1  0.179900  0.232800  0.335000  1.0  -0.0554
  C  C24  1  0.171200  0.046100  0.547900  1.0  -0.0248
  N  N25  1  0.410600  0.307500  0.064700  1.0  -0.3982
  N  N26  1  0.218300  0.280000  0.853900  1.0  -0.3636
  N  N27  1  0.710800  0.238200  0.737400  1.0  -0.4101
  N  N28  1  0.692200  0.521000  0.040700  1.0  -0.3919
  N  N29  1  0.089400  0.807500  0.435300  1.0  -0.3936
  N  N30  1  0.281700  0.780000  0.646100  1.0  -0.3628
  N  N31  1  0.789200  0.738200  0.762600  1.0  -0.4096
  N  N32  1  0.807800  0.021000  0.459300  1.0  -0.3918
  N  N33  1  0.589400  0.692500  0.935300  1.0  -0.3929
  N  N34  1  0.781700  0.720000  0.146100  1.0  -0.3625
  N  N35  1  0.289200  0.761800  0.262600  1.0  -0.4099
  N  N36  1  0.307800  0.479000  0.959300  1.0  -0.3898
  N  N37  1  0.910600  0.192500  0.564700  1.0  -0.3926
  N  N38  1  0.718300  0.220000  0.353900  1.0  -0.3633
  N  N39  1  0.210800  0.261800  0.237400  1.0  -0.4103
  N  N40  1  0.192200  0.979000  0.540700  1.0  -0.3902
