# generated using pymatgen
data_CdH4(CN)3
_symmetry_space_group_name_H-M   'P 1'
_cell_length_a   8.17680000
_cell_length_b   8.17680000
_cell_length_c   15.83700000
_cell_angle_alpha   91.38820000
_cell_angle_beta   91.38820000
_cell_angle_gamma   95.20280000
_symmetry_Int_Tables_number   1
_chemical_formula_structural   CdH4(CN)3
_chemical_formula_sum   'Cd4 H16 C12 N12'
_cell_volume   1053.81935503
_cell_formula_units_Z   4
loop_
 _symmetry_equiv_pos_site_id
 _symmetry_equiv_pos_as_xyz
  1  'x, y, z'
loop_
 _atom_site_type_symbol
 _atom_site_label
 _atom_site_symmetry_multiplicity
 _atom_site_fract_x
 _atom_site_fract_y
 _atom_site_fract_z
 _atom_site_occupancy
 _atom_site_charge
  Cd  Cd1  1  0.492690  0.514110  0.749560  1.0  0.526
  Cd  Cd2  1  0.003670  0.496330  0.000000  1.0  0.9193
  Cd  Cd3  1  0.514110  0.492690  0.249560  1.0  0.5259
  Cd  Cd4  1  0.496330  0.003670  0.500000  1.0  0.9196
  H  H5  1  0.819510  0.196110  0.959580  1.0  0.2867
  H  H6  1  0.000770  0.208070  0.899210  1.0  0.2818
  H  H7  1  0.147820  0.122180  0.018400  1.0  0.0799
  H  H8  1  0.960860  0.100460  0.073990  1.0  0.0778
  H  H9  1  0.042440  0.899280  0.920280  1.0  0.0763
  H  H10  1  0.855410  0.877590  0.975810  1.0  0.0796
  H  H11  1  0.000130  0.790930  0.092160  1.0  0.2792
  H  H12  1  0.179930  0.801070  0.030700  1.0  0.2694
  H  H13  1  0.196110  0.819510  0.459580  1.0  0.2818
  H  H14  1  0.208070  0.000770  0.399210  1.0  0.2831
  H  H15  1  0.122180  0.147820  0.518400  1.0  0.0804
  H  H16  1  0.100460  0.960860  0.573990  1.0  0.0784
  H  H17  1  0.899280  0.042440  0.420280  1.0  0.0776
  H  H18  1  0.877590  0.855410  0.475810  1.0  0.0857
  H  H19  1  0.790930  0.000130  0.592160  1.0  0.2785
  H  H20  1  0.801070  0.179930  0.530700  1.0  0.2674
  C  C21  1  0.286700  0.503300  0.838200  1.0  -0.0673
  C  C22  1  0.729400  0.479800  0.164200  1.0  -0.0536
  C  C23  1  0.481100  0.307500  0.653100  1.0  -0.0672
  C  C24  1  0.698800  0.530600  0.843000  1.0  -0.0761
  C  C25  1  0.016200  0.087200  0.012500  1.0  0.0225
  C  C26  1  0.987100  0.912500  0.981700  1.0  0.0315
  C  C27  1  0.503300  0.286700  0.338200  1.0  -0.0685
  C  C28  1  0.479800  0.729400  0.664200  1.0  -0.0559
  C  C29  1  0.307500  0.481100  0.153100  1.0  -0.0651
  C  C30  1  0.530600  0.698800  0.343000  1.0  -0.0783
  C  C31  1  0.087200  0.016200  0.512500  1.0  0.022
  C  C32  1  0.912500  0.987100  0.481700  1.0  0.0316
  N  N33  1  0.184400  0.507000  0.890700  1.0  -0.373
  N  N34  1  0.812000  0.478600  0.111100  1.0  -0.3518
  N  N35  1  0.471600  0.211000  0.601200  1.0  -0.3553
  N  N36  1  0.796200  0.534400  0.896400  1.0  -0.375
  N  N37  1  0.953300  0.213900  0.962800  1.0  -0.6121
  N  N38  1  0.046100  0.786300  0.028200  1.0  -0.5994
  N  N39  1  0.507000  0.184400  0.390700  1.0  -0.3719
  N  N40  1  0.478600  0.812000  0.611100  1.0  -0.3506
  N  N41  1  0.211000  0.471600  0.101200  1.0  -0.3563
  N  N42  1  0.534400  0.796200  0.396400  1.0  -0.3726
  N  N43  1  0.213900  0.953300  0.462800  1.0  -0.6126
  N  N44  1  0.786300  0.046100  0.528200  1.0  -0.5997
