# generated using pymatgen
data_Cd2(C2N3)5
_symmetry_space_group_name_H-M   'P 1'
_cell_length_a   17.05600000
_cell_length_b   16.62400000
_cell_length_c   17.06300000
_cell_angle_alpha   90.00000000
_cell_angle_beta   90.00000000
_cell_angle_gamma   90.00000000
_symmetry_Int_Tables_number   1
_chemical_formula_structural   Cd2(C2N3)5
_chemical_formula_sum   'Cd8 C40 N60'
_cell_volume   4838.02500147
_cell_formula_units_Z   4
loop_
 _symmetry_equiv_pos_site_id
 _symmetry_equiv_pos_as_xyz
  1  'x, y, z'
loop_
 _atom_site_type_symbol
 _atom_site_label
 _atom_site_symmetry_multiplicity
 _atom_site_fract_x
 _atom_site_fract_y
 _atom_site_fract_z
 _atom_site_occupancy
 _atom_site_charge
  Cd  Cd1  1  0.000000  0.252980  0.550160  1.0  0.9253
  Cd  Cd2  1  0.500000  0.752980  0.550160  1.0  0.9253
  Cd  Cd3  1  0.000000  0.247020  0.050160  1.0  0.9266
  Cd  Cd4  1  0.500000  0.747020  0.050160  1.0  0.9266
  Cd  Cd5  1  0.000000  0.752980  0.949840  1.0  0.9253
  Cd  Cd6  1  0.500000  0.252980  0.949840  1.0  0.9253
  Cd  Cd7  1  0.000000  0.747020  0.449840  1.0  0.9264
  Cd  Cd8  1  0.500000  0.247020  0.449840  1.0  0.9264
  C  C9  1  0.197800  0.246900  0.556100  1.0  0.343
  C  C10  1  0.697800  0.746900  0.556100  1.0  0.343
  C  C11  1  0.802200  0.253100  0.056100  1.0  0.3409
  C  C12  1  0.302200  0.753100  0.056100  1.0  0.3409
  C  C13  1  0.802200  0.746900  0.943900  1.0  0.3429
  C  C14  1  0.302200  0.246900  0.943900  1.0  0.3429
  C  C15  1  0.197800  0.753100  0.443900  1.0  0.3427
  C  C16  1  0.697800  0.253100  0.443900  1.0  0.3427
  C  C17  1  0.802200  0.753100  0.443900  1.0  0.3415
  C  C18  1  0.302200  0.253100  0.443900  1.0  0.3415
  C  C19  1  0.197800  0.746900  0.943900  1.0  0.3437
  C  C20  1  0.697800  0.246900  0.943900  1.0  0.3437
  C  C21  1  0.197800  0.253100  0.056100  1.0  0.3419
  C  C22  1  0.697800  0.753100  0.056100  1.0  0.3419
  C  C23  1  0.802200  0.246900  0.556100  1.0  0.3424
  C  C24  1  0.302200  0.746900  0.556100  1.0  0.3424
  C  C25  1  0.000000  0.313100  0.359200  1.0  0.5957
  C  C26  1  0.000000  0.066200  0.471700  1.0  0.4796
  C  C27  1  0.000000  0.276900  0.225900  1.0  0.6121
  C  C28  1  0.500000  0.813100  0.359200  1.0  0.5957
  C  C29  1  0.500000  0.566200  0.471700  1.0  0.4796
  C  C30  1  0.500000  0.776900  0.225900  1.0  0.6121
  C  C31  1  0.000000  0.186900  0.859200  1.0  0.5964
  C  C32  1  0.000000  0.433800  0.971700  1.0  0.4795
  C  C33  1  0.000000  0.223100  0.725900  1.0  0.6124
  C  C34  1  0.500000  0.686900  0.859200  1.0  0.5964
  C  C35  1  0.500000  0.933800  0.971700  1.0  0.4795
  C  C36  1  0.500000  0.723100  0.725900  1.0  0.6124
  C  C37  1  0.000000  0.813100  0.140800  1.0  0.5957
  C  C38  1  0.000000  0.566200  0.028300  1.0  0.4784
  C  C39  1  0.000000  0.776900  0.274100  1.0  0.6117
  C  C40  1  0.500000  0.313100  0.140800  1.0  0.5957
  C  C41  1  0.500000  0.066200  0.028300  1.0  0.4784
  C  C42  1  0.500000  0.276900  0.274100  1.0  0.6117
  C  C43  1  0.000000  0.686900  0.640800  1.0  0.5962
  C  C44  1  0.000000  0.933800  0.528300  1.0  0.4781
  C  C45  1  0.000000  0.723100  0.774100  1.0  0.6118
  C  C46  1  0.500000  0.186900  0.640800  1.0  0.5962
  C  C47  1  0.500000  0.433800  0.528300  1.0  0.4781
  C  C48  1  0.500000  0.223100  0.774100  1.0  0.6118
  N  N49  1  0.130000  0.253200  0.561200  1.0  -0.5791
  N  N50  1  0.630000  0.753200  0.561200  1.0  -0.5791
  N  N51  1  0.870000  0.246800  0.061200  1.0  -0.5785
  N  N52  1  0.370000  0.746800  0.061200  1.0  -0.5785
  N  N53  1  0.870000  0.753200  0.938800  1.0  -0.5782
  N  N54  1  0.370000  0.253200  0.938800  1.0  -0.5782
  N  N55  1  0.130000  0.746800  0.438800  1.0  -0.5789
  N  N56  1  0.630000  0.246800  0.438800  1.0  -0.5789
  N  N57  1  0.870000  0.746800  0.438800  1.0  -0.5786
  N  N58  1  0.370000  0.246800  0.438800  1.0  -0.5786
  N  N59  1  0.130000  0.753200  0.938800  1.0  -0.5788
  N  N60  1  0.630000  0.253200  0.938800  1.0  -0.5788
  N  N61  1  0.130000  0.246800  0.061200  1.0  -0.5791
  N  N62  1  0.630000  0.746800  0.061200  1.0  -0.5791
  N  N63  1  0.870000  0.253200  0.561200  1.0  -0.5782
  N  N64  1  0.370000  0.753200  0.561200  1.0  -0.5782
  N  N65  1  0.250000  0.250000  0.500000  1.0  -0.2063
  N  N66  1  0.750000  0.250000  0.000000  1.0  -0.2063
  N  N67  1  0.750000  0.750000  0.000000  1.0  -0.2063
  N  N68  1  0.250000  0.750000  0.500000  1.0  -0.2063
  N  N69  1  0.750000  0.750000  0.500000  1.0  -0.2063
  N  N70  1  0.250000  0.750000  0.000000  1.0  -0.2063
  N  N71  1  0.250000  0.250000  0.000000  1.0  -0.2063
  N  N72  1  0.750000  0.250000  0.500000  1.0  -0.2063
  N  N73  1  0.000000  0.327700  0.283800  1.0  -0.4811
  N  N74  1  0.000000  0.135400  0.474200  1.0  -0.5672
  N  N75  1  0.000000  0.320900  0.425400  1.0  -0.5249
  N  N76  1  0.000000  0.240100  0.170000  1.0  -0.5141
  N  N77  1  0.500000  0.827700  0.283800  1.0  -0.4811
  N  N78  1  0.500000  0.635400  0.474200  1.0  -0.5672
  N  N79  1  0.500000  0.820900  0.425400  1.0  -0.5249
  N  N80  1  0.500000  0.740100  0.170000  1.0  -0.5141
  N  N81  1  0.000000  0.172300  0.783800  1.0  -0.4792
  N  N82  1  0.000000  0.364600  0.974200  1.0  -0.5681
  N  N83  1  0.000000  0.179100  0.925400  1.0  -0.5234
  N  N84  1  0.000000  0.259900  0.670000  1.0  -0.5144
  N  N85  1  0.500000  0.672300  0.783800  1.0  -0.4792
  N  N86  1  0.500000  0.864600  0.974200  1.0  -0.5681
  N  N87  1  0.500000  0.679100  0.925400  1.0  -0.5234
  N  N88  1  0.500000  0.759900  0.670000  1.0  -0.5144
  N  N89  1  0.000000  0.827700  0.216200  1.0  -0.4809
  N  N90  1  0.000000  0.635400  0.025800  1.0  -0.5683
  N  N91  1  0.000000  0.820900  0.074600  1.0  -0.525
  N  N92  1  0.000000  0.740100  0.330000  1.0  -0.515
  N  N93  1  0.500000  0.327700  0.216200  1.0  -0.4809
  N  N94  1  0.500000  0.135400  0.025800  1.0  -0.5683
  N  N95  1  0.500000  0.320900  0.074600  1.0  -0.525
  N  N96  1  0.500000  0.240100  0.330000  1.0  -0.515
  N  N97  1  0.000000  0.672300  0.716200  1.0  -0.4795
  N  N98  1  0.000000  0.864600  0.525800  1.0  -0.5687
  N  N99  1  0.000000  0.679100  0.574600  1.0  -0.5251
  N  N100  1  0.000000  0.759900  0.830000  1.0  -0.5158
  N  N101  1  0.500000  0.172300  0.716200  1.0  -0.4795
  N  N102  1  0.500000  0.364600  0.525800  1.0  -0.5687
  N  N103  1  0.500000  0.179100  0.574600  1.0  -0.5251
  N  N104  1  0.500000  0.259900  0.830000  1.0  -0.5158
  N  N105  1  0.000000  0.000000  0.500000  1.0  0.3074
  N  N106  1  0.500000  0.500000  0.500000  1.0  0.3074
  N  N107  1  0.000000  0.500000  0.000000  1.0  0.3074
  N  N108  1  0.500000  0.000000  0.000000  1.0  0.3074
