# generated using pymatgen
data_Cd(C2N3)3
_symmetry_space_group_name_H-M   'P 1'
_cell_length_a   10.49800000
_cell_length_b   16.50000000
_cell_length_c   15.76300000
_cell_angle_alpha   90.00000000
_cell_angle_beta   128.04000000
_cell_angle_gamma   90.00000000
_symmetry_Int_Tables_number   1
_chemical_formula_structural   Cd(C2N3)3
_chemical_formula_sum   'Cd4 C24 N36'
_cell_volume   2150.42589031
_cell_formula_units_Z   4
loop_
 _symmetry_equiv_pos_site_id
 _symmetry_equiv_pos_as_xyz
  1  'x, y, z'
loop_
 _atom_site_type_symbol
 _atom_site_label
 _atom_site_symmetry_multiplicity
 _atom_site_fract_x
 _atom_site_fract_y
 _atom_site_fract_z
 _atom_site_occupancy
 _atom_site_charge
  Cd  Cd1  1  0.564810  0.823410  0.807710  1.0  1.0646
  Cd  Cd2  1  0.435190  0.323410  0.692290  1.0  1.0671
  Cd  Cd3  1  0.435190  0.176590  0.192290  1.0  1.067
  Cd  Cd4  1  0.564810  0.676590  0.307710  1.0  1.0642
  C  C5  1  0.524800  0.646400  0.676300  1.0  0.404
  C  C6  1  0.451300  0.513160  0.614800  1.0  0.6175
  C  C7  1  0.949300  0.761000  0.960600  1.0  0.5075
  C  C8  1  0.491800  0.706700  0.956500  1.0  0.5772
  C  C9  1  0.188500  0.681400  0.101200  1.0  0.3096
  C  C10  1  0.513000  0.630700  0.089000  1.0  0.4929
  C  C11  1  0.475200  0.146400  0.823700  1.0  0.4035
  C  C12  1  0.548700  0.013160  0.885200  1.0  0.619
  C  C13  1  0.050700  0.261000  0.539400  1.0  0.507
  C  C14  1  0.508200  0.206700  0.543500  1.0  0.5778
  C  C15  1  0.811500  0.181400  0.398800  1.0  0.31
  C  C16  1  0.487000  0.130700  0.411000  1.0  0.4942
  C  C17  1  0.475200  0.353600  0.323700  1.0  0.4039
  C  C18  1  0.548700  0.486840  0.385200  1.0  0.6221
  C  C19  1  0.050700  0.239000  0.039400  1.0  0.5062
  C  C20  1  0.508200  0.293300  0.043500  1.0  0.578
  C  C21  1  0.811500  0.318600  0.898800  1.0  0.3104
  C  C22  1  0.487000  0.369300  0.911000  1.0  0.4954
  C  C23  1  0.524800  0.853600  0.176300  1.0  0.4043
  C  C24  1  0.451300  0.986840  0.114800  1.0  0.6205
  C  C25  1  0.949300  0.739000  0.460600  1.0  0.5066
  C  C26  1  0.491800  0.793300  0.456500  1.0  0.5772
  C  C27  1  0.188500  0.818600  0.601200  1.0  0.3104
  C  C28  1  0.513000  0.869300  0.589000  1.0  0.4938
  N  N29  1  0.405200  0.445020  0.610700  1.0  -0.4945
  N  N30  1  0.526000  0.705100  0.716800  1.0  -0.3831
  N  N31  1  0.506000  0.579200  0.616500  1.0  -0.4244
  N  N32  1  0.846900  0.800600  0.920100  1.0  -0.4856
  N  N33  1  0.519000  0.749300  0.915100  1.0  -0.391
  N  N34  1  0.437500  0.648700  0.984600  1.0  -0.4201
  N  N35  1  0.281800  0.653000  0.179400  1.0  -0.4481
  N  N36  1  0.073600  0.713800  0.984600  1.0  -0.4401
  N  N37  1  0.579000  0.610900  0.177600  1.0  -0.4901
  N  N38  1  0.594800  0.945020  0.889300  1.0  -0.4951
  N  N39  1  0.474000  0.205100  0.783200  1.0  -0.3833
  N  N40  1  0.494000  0.079200  0.883500  1.0  -0.4249
  N  N41  1  0.153100  0.300600  0.579900  1.0  -0.4843
  N  N42  1  0.481000  0.249300  0.584900  1.0  -0.3907
  N  N43  1  0.562500  0.148700  0.515400  1.0  -0.4214
  N  N44  1  0.718200  0.153000  0.320600  1.0  -0.4499
  N  N45  1  0.926400  0.213800  0.515400  1.0  -0.4358
  N  N46  1  0.421000  0.110900  0.322400  1.0  -0.4906
  N  N47  1  0.594800  0.554980  0.389300  1.0  -0.4959
  N  N48  1  0.474000  0.294900  0.283200  1.0  -0.3842
  N  N49  1  0.494000  0.420800  0.383500  1.0  -0.4252
  N  N50  1  0.153100  0.199400  0.079900  1.0  -0.4828
  N  N51  1  0.481000  0.250700  0.084900  1.0  -0.3902
  N  N52  1  0.562500  0.351300  0.015400  1.0  -0.4226
  N  N53  1  0.718200  0.347000  0.820600  1.0  -0.4499
  N  N54  1  0.926400  0.286200  0.015400  1.0  -0.436
  N  N55  1  0.421000  0.389100  0.822400  1.0  -0.4927
  N  N56  1  0.405200  0.054980  0.110700  1.0  -0.4953
  N  N57  1  0.526000  0.794900  0.216800  1.0  -0.3836
  N  N58  1  0.506000  0.920800  0.116500  1.0  -0.4245
  N  N59  1  0.846900  0.699400  0.420100  1.0  -0.4844
  N  N60  1  0.519000  0.750700  0.415100  1.0  -0.3903
  N  N61  1  0.437500  0.851300  0.484600  1.0  -0.4198
  N  N62  1  0.281800  0.847000  0.679400  1.0  -0.4497
  N  N63  1  0.073600  0.786200  0.484600  1.0  -0.4396
  N  N64  1  0.579000  0.889100  0.677600  1.0  -0.4924
