# generated using pymatgen
data_Cd(C2N3)3
_symmetry_space_group_name_H-M   'P 1'
_cell_length_a   17.25000000
_cell_length_b   17.57000000
_cell_length_c   16.79000000
_cell_angle_alpha   90.00000000
_cell_angle_beta   90.00000000
_cell_angle_gamma   90.00000000
_symmetry_Int_Tables_number   1
_chemical_formula_structural   Cd(C2N3)3
_chemical_formula_sum   'Cd8 C48 N72'
_cell_volume   5088.75517500
_cell_formula_units_Z   8
loop_
 _symmetry_equiv_pos_site_id
 _symmetry_equiv_pos_as_xyz
  1  'x, y, z'
loop_
 _atom_site_type_symbol
 _atom_site_label
 _atom_site_symmetry_multiplicity
 _atom_site_fract_x
 _atom_site_fract_y
 _atom_site_fract_z
 _atom_site_occupancy
 _atom_site_charge
  Cd  Cd1  1  0.203740  0.288020  0.500000  1.0  0.9505
  Cd  Cd2  1  0.703740  0.788020  0.000000  1.0  0.9505
  Cd  Cd3  1  0.796260  0.711980  0.500000  1.0  0.9506
  Cd  Cd4  1  0.296260  0.211980  0.000000  1.0  0.9506
  Cd  Cd5  1  0.296260  0.788020  0.500000  1.0  0.9502
  Cd  Cd6  1  0.796260  0.288020  0.000000  1.0  0.9502
  Cd  Cd7  1  0.703740  0.211980  0.500000  1.0  0.951
  Cd  Cd8  1  0.203740  0.711980  0.000000  1.0  0.951
  C  C9  1  0.208700  0.278400  0.299700  1.0  0.4747
  C  C10  1  0.708700  0.778400  0.799700  1.0  0.4747
  C  C11  1  0.791300  0.721600  0.299700  1.0  0.4733
  C  C12  1  0.291300  0.221600  0.799700  1.0  0.4733
  C  C13  1  0.291300  0.778400  0.700300  1.0  0.4707
  C  C14  1  0.791300  0.278400  0.200300  1.0  0.4707
  C  C15  1  0.708700  0.221600  0.700300  1.0  0.4728
  C  C16  1  0.208700  0.721600  0.200300  1.0  0.4728
  C  C17  1  0.791300  0.721600  0.700300  1.0  0.4735
  C  C18  1  0.291300  0.221600  0.200300  1.0  0.4735
  C  C19  1  0.208700  0.278400  0.700300  1.0  0.475
  C  C20  1  0.708700  0.778400  0.200300  1.0  0.475
  C  C21  1  0.708700  0.221600  0.299700  1.0  0.4724
  C  C22  1  0.208700  0.721600  0.799700  1.0  0.4724
  C  C23  1  0.291300  0.778400  0.299700  1.0  0.4705
  C  C24  1  0.791300  0.278400  0.799700  1.0  0.4705
  C  C25  1  0.400700  0.305600  0.500000  1.0  0.4641
  C  C26  1  0.201000  0.094200  0.500000  1.0  0.375
  C  C27  1  0.261600  0.976500  0.500000  1.0  0.4883
  C  C28  1  0.509600  0.226800  0.500000  1.0  0.4251
  C  C29  1  0.900700  0.805600  0.000000  1.0  0.4641
  C  C30  1  0.701000  0.594200  0.000000  1.0  0.375
  C  C31  1  0.761600  0.476500  0.000000  1.0  0.4883
  C  C32  1  0.009600  0.726800  0.000000  1.0  0.4251
  C  C33  1  0.599300  0.694400  0.500000  1.0  0.4676
  C  C34  1  0.799000  0.905800  0.500000  1.0  0.373
  C  C35  1  0.738400  0.023500  0.500000  1.0  0.4892
  C  C36  1  0.490400  0.773200  0.500000  1.0  0.424
  C  C37  1  0.099300  0.194400  0.000000  1.0  0.4676
  C  C38  1  0.299000  0.405800  0.000000  1.0  0.373
  C  C39  1  0.238400  0.523500  0.000000  1.0  0.4892
  C  C40  1  0.990400  0.273200  0.000000  1.0  0.424
  C  C41  1  0.099300  0.805600  0.500000  1.0  0.4679
  C  C42  1  0.299000  0.594200  0.500000  1.0  0.3723
  C  C43  1  0.238400  0.476500  0.500000  1.0  0.4874
  C  C44  1  0.990400  0.726800  0.500000  1.0  0.4238
  C  C45  1  0.599300  0.305600  0.000000  1.0  0.4679
  C  C46  1  0.799000  0.094200  0.000000  1.0  0.3723
  C  C47  1  0.738400  0.976500  0.000000  1.0  0.4874
  C  C48  1  0.490400  0.226800  0.000000  1.0  0.4238
  C  C49  1  0.900700  0.194400  0.500000  1.0  0.4676
  C  C50  1  0.701000  0.405800  0.500000  1.0  0.3755
  C  C51  1  0.761600  0.523500  0.500000  1.0  0.4884
  C  C52  1  0.009600  0.273200  0.500000  1.0  0.4253
  C  C53  1  0.400700  0.694400  0.000000  1.0  0.4676
  C  C54  1  0.201000  0.905800  0.000000  1.0  0.3755
  C  C55  1  0.261600  0.023500  0.000000  1.0  0.4884
  C  C56  1  0.509600  0.773200  0.000000  1.0  0.4253
  N  N57  1  0.193200  0.295100  0.365800  1.0  -0.5343
  N  N58  1  0.693200  0.795100  0.865800  1.0  -0.5343
  N  N59  1  0.806800  0.704900  0.365800  1.0  -0.5325
  N  N60  1  0.306800  0.204900  0.865800  1.0  -0.5325
  N  N61  1  0.306800  0.795100  0.634200  1.0  -0.5334
  N  N62  1  0.806800  0.295100  0.134200  1.0  -0.5334
  N  N63  1  0.693200  0.204900  0.634200  1.0  -0.5317
  N  N64  1  0.193200  0.704900  0.134200  1.0  -0.5317
  N  N65  1  0.806800  0.704900  0.634200  1.0  -0.5323
  N  N66  1  0.306800  0.204900  0.134200  1.0  -0.5323
  N  N67  1  0.193200  0.295100  0.634200  1.0  -0.5337
  N  N68  1  0.693200  0.795100  0.134200  1.0  -0.5337
  N  N69  1  0.693200  0.204900  0.365800  1.0  -0.5324
  N  N70  1  0.193200  0.704900  0.865800  1.0  -0.5324
  N  N71  1  0.306800  0.795100  0.365800  1.0  -0.5335
  N  N72  1  0.806800  0.295100  0.865800  1.0  -0.5335
  N  N73  1  0.476400  0.295300  0.500000  1.0  -0.4614
  N  N74  1  0.337400  0.287200  0.500000  1.0  -0.479
  N  N75  1  0.200600  0.157300  0.500000  1.0  -0.3787
  N  N76  1  0.199200  0.019900  0.500000  1.0  -0.4681
  N  N77  1  0.299000  0.922800  0.500000  1.0  -0.5824
  N  N78  1  0.568100  0.192900  0.500000  1.0  -0.5009
  N  N79  1  0.976400  0.795300  0.000000  1.0  -0.4614
  N  N80  1  0.837400  0.787200  0.000000  1.0  -0.479
  N  N81  1  0.700600  0.657300  0.000000  1.0  -0.3787
  N  N82  1  0.699200  0.519900  0.000000  1.0  -0.4681
  N  N83  1  0.799000  0.422800  0.000000  1.0  -0.5824
  N  N84  1  0.068100  0.692900  0.000000  1.0  -0.5009
  N  N85  1  0.523600  0.704700  0.500000  1.0  -0.4611
  N  N86  1  0.662600  0.712800  0.500000  1.0  -0.4776
  N  N87  1  0.799400  0.842700  0.500000  1.0  -0.379
  N  N88  1  0.800800  0.980100  0.500000  1.0  -0.4686
  N  N89  1  0.701000  0.077200  0.500000  1.0  -0.5838
  N  N90  1  0.431900  0.807100  0.500000  1.0  -0.5041
  N  N91  1  0.023600  0.204700  0.000000  1.0  -0.4611
  N  N92  1  0.162600  0.212800  0.000000  1.0  -0.4776
  N  N93  1  0.299400  0.342700  0.000000  1.0  -0.379
  N  N94  1  0.300800  0.480100  0.000000  1.0  -0.4686
  N  N95  1  0.201000  0.577200  0.000000  1.0  -0.5838
  N  N96  1  0.931900  0.307100  0.000000  1.0  -0.5041
  N  N97  1  0.023600  0.795300  0.500000  1.0  -0.4617
  N  N98  1  0.162600  0.787200  0.500000  1.0  -0.4772
  N  N99  1  0.299400  0.657300  0.500000  1.0  -0.3776
  N  N100  1  0.300800  0.519900  0.500000  1.0  -0.4682
  N  N101  1  0.201000  0.422800  0.500000  1.0  -0.5843
  N  N102  1  0.931900  0.692900  0.500000  1.0  -0.5008
  N  N103  1  0.523600  0.295300  0.000000  1.0  -0.4617
  N  N104  1  0.662600  0.287200  0.000000  1.0  -0.4772
  N  N105  1  0.799400  0.157300  0.000000  1.0  -0.3776
  N  N106  1  0.800800  0.019900  0.000000  1.0  -0.4664
  N  N107  1  0.701000  0.922800  0.000000  1.0  -0.5843
  N  N108  1  0.431900  0.192900  0.000000  1.0  -0.5008
  N  N109  1  0.976400  0.204700  0.500000  1.0  -0.4604
  N  N110  1  0.837400  0.212800  0.500000  1.0  -0.4789
  N  N111  1  0.700600  0.342700  0.500000  1.0  -0.3791
  N  N112  1  0.699200  0.480100  0.500000  1.0  -0.4685
  N  N113  1  0.799000  0.577200  0.500000  1.0  -0.5823
  N  N114  1  0.068100  0.307100  0.500000  1.0  -0.5037
  N  N115  1  0.476400  0.704700  0.000000  1.0  -0.4604
  N  N116  1  0.337400  0.712800  0.000000  1.0  -0.4789
  N  N117  1  0.200600  0.842700  0.000000  1.0  -0.3791
  N  N118  1  0.199200  0.980100  0.000000  1.0  -0.4667
  N  N119  1  0.299000  0.077200  0.000000  1.0  -0.5823
  N  N120  1  0.568100  0.807100  0.000000  1.0  -0.5037
  N  N121  1  0.250000  0.250000  0.250000  1.0  0.2875
  N  N122  1  0.750000  0.750000  0.250000  1.0  0.2875
  N  N123  1  0.250000  0.750000  0.750000  1.0  0.2875
  N  N124  1  0.750000  0.250000  0.750000  1.0  0.2875
  N  N125  1  0.750000  0.750000  0.750000  1.0  0.2875
  N  N126  1  0.250000  0.250000  0.750000  1.0  0.2875
  N  N127  1  0.750000  0.250000  0.250000  1.0  0.2875
  N  N128  1  0.250000  0.750000  0.250000  1.0  0.2875
