# generated using pymatgen
data_MnHgC4(SN)4
_symmetry_space_group_name_H-M   'P 1'
_cell_length_a   7.73730000
_cell_length_b   16.12030000
_cell_length_c   15.21350000
_cell_angle_alpha   90.00000000
_cell_angle_beta   90.00000000
_cell_angle_gamma   90.00000000
_symmetry_Int_Tables_number   1
_chemical_formula_structural   MnHgC4(SN)4
_chemical_formula_sum   'Mn4 Hg4 C16 S16 N16'
_cell_volume   1897.54329985
_cell_formula_units_Z   4
loop_
 _symmetry_equiv_pos_site_id
 _symmetry_equiv_pos_as_xyz
  1  'x, y, z'
loop_
 _atom_site_type_symbol
 _atom_site_label
 _atom_site_symmetry_multiplicity
 _atom_site_fract_x
 _atom_site_fract_y
 _atom_site_fract_z
 _atom_site_occupancy
 _atom_site_charge
  Mn  Mn1  1  0.482100  0.126340  0.548020  1.0  1.1478
  Mn  Mn2  1  0.517900  0.873660  0.048020  1.0  1.1501
  Mn  Mn3  1  0.017900  0.626340  0.548020  1.0  1.1481
  Mn  Mn4  1  0.982100  0.373660  0.048020  1.0  1.1498
  Hg  Hg5  1  0.546990  0.433730  0.353150  1.0  0.4033
  Hg  Hg6  1  0.453010  0.566270  0.853150  1.0  0.4037
  Hg  Hg7  1  0.953010  0.933730  0.353150  1.0  0.4033
  Hg  Hg8  1  0.046990  0.066270  0.853150  1.0  0.4036
  C  C9  1  0.640900  0.246900  0.386600  1.0  0.3915
  C  C10  1  0.826700  0.002800  0.538500  1.0  0.3715
  C  C11  1  0.324800  0.007600  0.387600  1.0  0.3684
  C  C12  1  0.308200  0.008600  0.707200  1.0  0.3863
  C  C13  1  0.359100  0.753100  0.886600  1.0  0.3954
  C  C14  1  0.173300  0.997200  0.038500  1.0  0.3715
  C  C15  1  0.675200  0.992400  0.887600  1.0  0.3672
  C  C16  1  0.691800  0.991400  0.207200  1.0  0.3858
  C  C17  1  0.859100  0.746900  0.386600  1.0  0.3922
  C  C18  1  0.673300  0.502800  0.538500  1.0  0.3713
  C  C19  1  0.175200  0.507600  0.387600  1.0  0.3677
  C  C20  1  0.191800  0.508600  0.707200  1.0  0.3864
  C  C21  1  0.140900  0.253100  0.886600  1.0  0.3953
  C  C22  1  0.326700  0.497200  0.038500  1.0  0.3716
  C  C23  1  0.824800  0.492400  0.887600  1.0  0.368
  C  C24  1  0.808200  0.491400  0.207200  1.0  0.3858
  S  S25  1  0.701800  0.304300  0.302400  1.0  -0.2694
  S  S26  1  0.975900  0.934000  0.520200  1.0  -0.2307
  S  S27  1  0.260700  0.954400  0.300500  1.0  -0.2387
  S  S28  1  0.241000  0.951900  0.790000  1.0  -0.2192
  S  S29  1  0.298200  0.695700  0.802400  1.0  -0.2689
  S  S30  1  0.024100  0.066000  0.020200  1.0  -0.2281
  S  S31  1  0.739300  0.045600  0.800500  1.0  -0.2382
  S  S32  1  0.759000  0.048100  0.290000  1.0  -0.2179
  S  S33  1  0.798200  0.804300  0.302400  1.0  -0.2695
  S  S34  1  0.524100  0.434000  0.520200  1.0  -0.2294
  S  S35  1  0.239300  0.454400  0.300500  1.0  -0.2384
  S  S36  1  0.259000  0.451900  0.790000  1.0  -0.2192
  S  S37  1  0.201800  0.195700  0.802400  1.0  -0.2692
  S  S38  1  0.475900  0.566000  0.020200  1.0  -0.2293
  S  S39  1  0.760700  0.545600  0.800500  1.0  -0.2387
  S  S40  1  0.741000  0.548100  0.290000  1.0  -0.2177
  N  N41  1  0.600400  0.206400  0.444500  1.0  -0.5351
  N  N42  1  0.720000  0.050100  0.552300  1.0  -0.5218
  N  N43  1  0.373700  0.046400  0.444800  1.0  -0.5175
  N  N44  1  0.353200  0.049300  0.651500  1.0  -0.5452
  N  N45  1  0.399600  0.793600  0.944500  1.0  -0.5349
  N  N46  1  0.280000  0.949900  0.052300  1.0  -0.5182
  N  N47  1  0.626300  0.953600  0.944800  1.0  -0.5147
  N  N48  1  0.646800  0.950700  0.151500  1.0  -0.5444
  N  N49  1  0.899600  0.706400  0.444500  1.0  -0.5353
  N  N50  1  0.780000  0.550100  0.552300  1.0  -0.5217
  N  N51  1  0.126300  0.546400  0.444800  1.0  -0.5177
  N  N52  1  0.146800  0.549300  0.651500  1.0  -0.545
  N  N53  1  0.100400  0.293600  0.944500  1.0  -0.5347
  N  N54  1  0.220000  0.449900  0.052300  1.0  -0.5186
  N  N55  1  0.873700  0.453600  0.944800  1.0  -0.5146
  N  N56  1  0.853200  0.450700  0.151500  1.0  -0.5437
