# generated using pymatgen
data_CoH20C30S(NO3)2
_symmetry_space_group_name_H-M   'P 1'
_cell_length_a   15.61670000
_cell_length_b   15.61670000
_cell_length_c   16.71780000
_cell_angle_alpha   100.83500000
_cell_angle_beta   100.83500000
_cell_angle_gamma   119.90500000
_symmetry_Int_Tables_number   1
_chemical_formula_structural   CoH20C30S(NO3)2
_chemical_formula_sum   'Co4 H80 C120 S4 N8 O24'
_cell_volume   3275.77633833
_cell_formula_units_Z   4
loop_
 _symmetry_equiv_pos_site_id
 _symmetry_equiv_pos_as_xyz
  1  'x, y, z'
loop_
 _atom_site_type_symbol
 _atom_site_label
 _atom_site_symmetry_multiplicity
 _atom_site_fract_x
 _atom_site_fract_y
 _atom_site_fract_z
 _atom_site_occupancy
 _atom_site_charge
  Co  Co1  1  0.504950  0.068770  0.620810  1.0  0.7171
  Co  Co2  1  0.931230  0.495050  0.879190  1.0  0.7163
  Co  Co3  1  0.495050  0.931230  0.379190  1.0  0.718
  Co  Co4  1  0.068770  0.504950  0.120810  1.0  0.7173
  H  H5  1  0.662800  0.304400  0.653900  1.0  0.0831
  H  H6  1  0.668300  0.452700  0.657600  1.0  0.1117
  H  H7  1  0.357200  0.285400  0.579800  1.0  0.126
  H  H8  1  0.359300  0.139300  0.575200  1.0  0.0815
  H  H9  1  0.649900  0.566300  0.601100  1.0  0.1012
  H  H10  1  0.647300  0.711900  0.603500  1.0  0.105
  H  H11  1  0.374300  0.579100  0.646100  1.0  0.1088
  H  H12  1  0.378600  0.434000  0.646800  1.0  0.1068
  H  H13  1  0.663200  0.863600  0.677800  1.0  0.1312
  H  H14  1  0.655300  0.005300  0.679500  1.0  0.0755
  H  H15  1  0.353300  0.830500  0.580500  1.0  0.081
  H  H16  1  0.352400  0.683800  0.575500  1.0  0.1193
  H  H17  1  0.775600  0.045800  0.463100  1.0  0.1063
  H  H18  1  0.949400  0.135600  0.474100  1.0  0.1138
  H  H19  1  0.008300  0.376900  0.662100  1.0  0.1028
  H  H20  1  0.835200  0.283800  0.656400  1.0  0.1071
  H  H21  1  0.106400  0.249800  0.402500  1.0  0.1199
  H  H22  1  0.086600  0.295400  0.280700  1.0  0.1094
  H  H23  1  0.127600  0.558200  0.419600  1.0  0.1006
  H  H24  1  0.142400  0.511800  0.540600  1.0  0.116
  H  H25  1  0.695600  0.337200  0.846100  1.0  0.0805
  H  H26  1  0.547300  0.331700  0.842400  1.0  0.1109
  H  H27  1  0.714600  0.642800  0.920200  1.0  0.126
  H  H28  1  0.860700  0.640700  0.924800  1.0  0.0829
  H  H29  1  0.433700  0.350100  0.898900  1.0  0.1012
  H  H30  1  0.288100  0.352700  0.896500  1.0  0.1054
  H  H31  1  0.420900  0.625700  0.853900  1.0  0.1085
  H  H32  1  0.566000  0.621400  0.853200  1.0  0.1065
  H  H33  1  0.136400  0.336800  0.822200  1.0  0.1307
  H  H34  1  0.994700  0.344700  0.820500  1.0  0.0756
  H  H35  1  0.169500  0.646700  0.919500  1.0  0.0783
  H  H36  1  0.316200  0.647600  0.924500  1.0  0.1196
  H  H37  1  0.954200  0.224400  0.036900  1.0  0.1064
  H  H38  1  0.864400  0.050600  0.025900  1.0  0.1151
  H  H39  1  0.623100  0.991700  0.837900  1.0  0.1031
  H  H40  1  0.716200  0.164800  0.843600  1.0  0.1067
  H  H41  1  0.750200  0.893600  0.097500  1.0  0.1183
  H  H42  1  0.704600  0.913400  0.219300  1.0  0.1102
  H  H43  1  0.441800  0.872400  0.080400  1.0  0.1012
  H  H44  1  0.488200  0.857600  0.959400  1.0  0.116
  H  H45  1  0.337200  0.695600  0.346100  1.0  0.0831
  H  H46  1  0.331700  0.547300  0.342400  1.0  0.1107
  H  H47  1  0.642800  0.714600  0.420200  1.0  0.1269
  H  H48  1  0.640700  0.860700  0.424800  1.0  0.0817
  H  H49  1  0.350100  0.433700  0.398900  1.0  0.1023
  H  H50  1  0.352700  0.288100  0.396500  1.0  0.1053
  H  H51  1  0.625700  0.420900  0.353900  1.0  0.1086
  H  H52  1  0.621400  0.566000  0.353200  1.0  0.1062
  H  H53  1  0.336800  0.136400  0.322200  1.0  0.1317
  H  H54  1  0.344700  0.994700  0.320500  1.0  0.0754
  H  H55  1  0.646700  0.169500  0.419500  1.0  0.08
  H  H56  1  0.647600  0.316200  0.424500  1.0  0.1186
  H  H57  1  0.224400  0.954200  0.536900  1.0  0.1072
  H  H58  1  0.050600  0.864400  0.525900  1.0  0.1143
  H  H59  1  0.991700  0.623100  0.337900  1.0  0.1028
  H  H60  1  0.164800  0.716200  0.343600  1.0  0.1066
  H  H61  1  0.893600  0.750200  0.597500  1.0  0.1206
  H  H62  1  0.913400  0.704600  0.719300  1.0  0.1098
  H  H63  1  0.872400  0.441800  0.580400  1.0  0.1004
  H  H64  1  0.857600  0.488200  0.459400  1.0  0.1162
  H  H65  1  0.304400  0.662800  0.153900  1.0  0.0807
  H  H66  1  0.452700  0.668300  0.157600  1.0  0.1118
  H  H67  1  0.285400  0.357200  0.079800  1.0  0.1258
  H  H68  1  0.139300  0.359300  0.075200  1.0  0.0828
  H  H69  1  0.566300  0.649900  0.101100  1.0  0.1011
  H  H70  1  0.711900  0.647300  0.103500  1.0  0.1056
  H  H71  1  0.579100  0.374300  0.146100  1.0  0.1082
  H  H72  1  0.434000  0.378600  0.146800  1.0  0.1071
  H  H73  1  0.863600  0.663200  0.177800  1.0  0.1304
  H  H74  1  0.005300  0.655300  0.179500  1.0  0.0756
  H  H75  1  0.830500  0.353300  0.080500  1.0  0.0786
  H  H76  1  0.683800  0.352400  0.075500  1.0  0.12
  H  H77  1  0.045800  0.775600  0.963100  1.0  0.1066
  H  H78  1  0.135600  0.949400  0.974100  1.0  0.1149
  H  H79  1  0.376900  0.008300  0.162100  1.0  0.1026
  H  H80  1  0.283800  0.835200  0.156400  1.0  0.1074
  H  H81  1  0.249800  0.106400  0.902500  1.0  0.1173
  H  H82  1  0.295400  0.086600  0.780700  1.0  0.1097
  H  H83  1  0.558200  0.127600  0.919600  1.0  0.1008
  H  H84  1  0.511800  0.142400  0.040600  1.0  0.1167
  C  C85  1  0.599950  0.300050  0.638600  1.0  0.171
  C  C86  1  0.603890  0.389710  0.641100  1.0  -0.1884
  C  C87  1  0.512820  0.387780  0.619500  1.0  0.1113
  C  C88  1  0.420890  0.291510  0.595000  1.0  -0.2071
  C  C89  1  0.422900  0.203700  0.593000  1.0  0.1639
  C  C90  1  0.513190  0.483010  0.622500  1.0  0.0075
  C  C91  1  0.594010  0.568390  0.610300  1.0  -0.0989
  C  C92  1  0.592350  0.655650  0.611700  1.0  -0.1076
  C  C93  1  0.510420  0.661380  0.625100  1.0  0.0324
  C  C94  1  0.430470  0.577130  0.637400  1.0  -0.0967
  C  C95  1  0.432680  0.489520  0.637000  1.0  -0.0996
  C  C96  1  0.508600  0.755200  0.626100  1.0  0.1157
  C  C97  1  0.598510  0.854290  0.657100  1.0  -0.2025
  C  C98  1  0.593180  0.939420  0.657600  1.0  0.1636
  C  C99  1  0.416990  0.837410  0.599800  1.0  0.1728
  C  C100  1  0.415730  0.748670  0.597000  1.0  -0.2053
  C  C101  1  0.674450  0.096150  0.552600  1.0  0.6262
  C  C102  1  0.788220  0.155180  0.559590  1.0  -0.1256
  C  C103  1  0.822760  0.111840  0.504300  1.0  -0.0347
  C  C104  1  0.925550  0.165450  0.510000  1.0  -0.0613
  C  C105  1  0.993800  0.264800  0.569700  1.0  -0.2033
  C  C106  1  0.961300  0.309500  0.623100  1.0  -0.047
  C  C107  1  0.857920  0.254280  0.619100  1.0  -0.0321
  C  C108  1  0.123640  0.375960  0.483500  1.0  -0.2121
  C  C109  1  0.108920  0.311080  0.405500  1.0  -0.0354
  C  C110  1  0.097980  0.339020  0.333333  1.0  -0.041
  C  C111  1  0.103630  0.430370  0.337200  1.0  -0.0964
  C  C112  1  0.121710  0.495290  0.416000  1.0  -0.0458
  C  C113  1  0.131040  0.467960  0.488100  1.0  -0.0329
  C  C114  1  0.088510  0.458290  0.256600  1.0  0.6092
  C  C115  1  0.699950  0.400050  0.861400  1.0  0.173
  C  C116  1  0.610290  0.396110  0.858900  1.0  -0.1929
  C  C117  1  0.612220  0.487180  0.880500  1.0  0.1106
  C  C118  1  0.708490  0.579110  0.905000  1.0  -0.2075
  C  C119  1  0.796300  0.577100  0.907000  1.0  0.1622
  C  C120  1  0.516990  0.486810  0.877500  1.0  0.007
  C  C121  1  0.431610  0.405990  0.889700  1.0  -0.0995
  C  C122  1  0.344350  0.407650  0.888300  1.0  -0.1076
  C  C123  1  0.338620  0.489580  0.874900  1.0  0.0298
  C  C124  1  0.422870  0.569530  0.862600  1.0  -0.0947
  C  C125  1  0.510480  0.567320  0.863000  1.0  -0.0995
  C  C126  1  0.244800  0.491400  0.873900  1.0  0.1141
  C  C127  1  0.145710  0.401490  0.842900  1.0  -0.2027
  C  C128  1  0.060580  0.406820  0.842400  1.0  0.163
  C  C129  1  0.162590  0.583010  0.900200  1.0  0.1735
  C  C130  1  0.251330  0.584270  0.903000  1.0  -0.209
  C  C131  1  0.903850  0.325550  0.947400  1.0  0.628
  C  C132  1  0.844820  0.211780  0.940410  1.0  -0.125
  C  C133  1  0.888160  0.177240  0.995700  1.0  -0.0354
  C  C134  1  0.834550  0.074450  0.990000  1.0  -0.0607
  C  C135  1  0.735200  0.006200  0.930300  1.0  -0.1979
  C  C136  1  0.690500  0.038700  0.876900  1.0  -0.0436
  C  C137  1  0.745720  0.142080  0.880900  1.0  -0.0302
  C  C138  1  0.624040  0.876360  0.016500  1.0  -0.2113
  C  C139  1  0.688920  0.891080  0.094500  1.0  -0.0358
  C  C140  1  0.660980  0.902020  0.166700  1.0  -0.0439
  C  C141  1  0.569630  0.896370  0.162800  1.0  -0.0913
  C  C142  1  0.504710  0.878290  0.084000  1.0  -0.051
  C  C143  1  0.532040  0.868960  0.011900  1.0  -0.0313
  C  C144  1  0.541710  0.911490  0.243400  1.0  0.6101
  C  C145  1  0.400050  0.699950  0.361400  1.0  0.1693
  C  C146  1  0.396110  0.610290  0.358900  1.0  -0.1903
  C  C147  1  0.487180  0.612220  0.380500  1.0  0.1113
  C  C148  1  0.579110  0.708490  0.405000  1.0  -0.2079
  C  C149  1  0.577100  0.796300  0.407000  1.0  0.1632
  C  C150  1  0.486810  0.516990  0.377500  1.0  0.0075
  C  C151  1  0.405990  0.431610  0.389700  1.0  -0.0986
  C  C152  1  0.407650  0.344350  0.388300  1.0  -0.1054
  C  C153  1  0.489580  0.338620  0.374900  1.0  0.0312
  C  C154  1  0.569530  0.422870  0.362600  1.0  -0.0975
  C  C155  1  0.567320  0.510480  0.363000  1.0  -0.1004
  C  C156  1  0.491400  0.244800  0.373900  1.0  0.1146
  C  C157  1  0.401490  0.145710  0.342900  1.0  -0.2035
  C  C158  1  0.406820  0.060580  0.342400  1.0  0.1641
  C  C159  1  0.583010  0.162590  0.400200  1.0  0.1715
  C  C160  1  0.584270  0.251330  0.403000  1.0  -0.2048
  C  C161  1  0.325550  0.903850  0.447400  1.0  0.6263
  C  C162  1  0.211780  0.844820  0.440410  1.0  -0.126
  C  C163  1  0.177240  0.888160  0.495700  1.0  -0.0357
  C  C164  1  0.074450  0.834550  0.490000  1.0  -0.0604
  C  C165  1  0.006200  0.735200  0.430300  1.0  -0.2024
  C  C166  1  0.038700  0.690500  0.376900  1.0  -0.0466
  C  C167  1  0.142080  0.745720  0.380900  1.0  -0.0332
  C  C168  1  0.876360  0.624040  0.516500  1.0  -0.2118
  C  C169  1  0.891080  0.688920  0.594500  1.0  -0.0345
  C  C170  1  0.902020  0.660980  0.666667  1.0  -0.0439
  C  C171  1  0.896370  0.569630  0.662800  1.0  -0.0941
  C  C172  1  0.878290  0.504710  0.584000  1.0  -0.0499
  C  C173  1  0.868960  0.532040  0.511900  1.0  -0.0315
  C  C174  1  0.911490  0.541710  0.743400  1.0  0.6093
  C  C175  1  0.300050  0.599950  0.138600  1.0  0.1733
  C  C176  1  0.389710  0.603890  0.141100  1.0  -0.1923
  C  C177  1  0.387780  0.512820  0.119500  1.0  0.1104
  C  C178  1  0.291510  0.420890  0.095000  1.0  -0.2062
  C  C179  1  0.203700  0.422900  0.093000  1.0  0.1616
  C  C180  1  0.483010  0.513190  0.122500  1.0  0.0082
  C  C181  1  0.568390  0.594010  0.110300  1.0  -0.0994
  C  C182  1  0.655650  0.592350  0.111700  1.0  -0.1082
  C  C183  1  0.661380  0.510420  0.125100  1.0  0.0316
  C  C184  1  0.577130  0.430470  0.137400  1.0  -0.0948
  C  C185  1  0.489520  0.432680  0.137000  1.0  -0.0995
  C  C186  1  0.755200  0.508600  0.126100  1.0  0.1162
  C  C187  1  0.854290  0.598510  0.157100  1.0  -0.2039
  C  C188  1  0.939420  0.593180  0.157600  1.0  0.1636
  C  C189  1  0.837410  0.416990  0.099800  1.0  0.1738
  C  C190  1  0.748670  0.415730  0.097000  1.0  -0.2073
  C  C191  1  0.096150  0.674450  0.052600  1.0  0.6283
  C  C192  1  0.155180  0.788220  0.059590  1.0  -0.126
  C  C193  1  0.111840  0.822760  0.004300  1.0  -0.036
  C  C194  1  0.165450  0.925550  0.010000  1.0  -0.0598
  C  C195  1  0.264800  0.993800  0.069700  1.0  -0.1995
  C  C196  1  0.309500  0.961300  0.123100  1.0  -0.0448
  C  C197  1  0.254280  0.857920  0.119100  1.0  -0.0321
  C  C198  1  0.375960  0.123640  0.983500  1.0  -0.212
  C  C199  1  0.311080  0.108920  0.905500  1.0  -0.0344
  C  C200  1  0.339020  0.097980  0.833300  1.0  -0.0432
  C  C201  1  0.430370  0.103630  0.837200  1.0  -0.0968
  C  C202  1  0.495290  0.121710  0.916000  1.0  -0.051
  C  C203  1  0.467960  0.131040  0.988100  1.0  -0.0322
  C  C204  1  0.458290  0.088510  0.756600  1.0  0.6096
  S  S205  1  0.127520  0.336020  0.575370  1.0  1.1236
  S  S206  1  0.663980  0.872480  0.924630  1.0  1.1228
  S  S207  1  0.872480  0.663980  0.424630  1.0  1.1233
  S  S208  1  0.336020  0.127520  0.075370  1.0  1.1228
  N  N209  1  0.510810  0.206310  0.615250  1.0  -0.2677
  N  N210  1  0.503630  0.932870  0.628400  1.0  -0.2947
  N  N211  1  0.793690  0.489190  0.884750  1.0  -0.2677
  N  N212  1  0.067130  0.496370  0.871600  1.0  -0.2909
  N  N213  1  0.489190  0.793690  0.384750  1.0  -0.269
  N  N214  1  0.496370  0.067130  0.371600  1.0  -0.2911
  N  N215  1  0.206310  0.510810  0.115250  1.0  -0.2688
  N  N216  1  0.932870  0.503630  0.128400  1.0  -0.2906
  O  O217  1  0.613860  0.011640  0.492480  1.0  -0.594
  O  O218  1  0.649490  0.135770  0.608590  1.0  -0.5513
  O  O219  1  0.160570  0.266230  0.565000  1.0  -0.5707
  O  O220  1  0.184900  0.427100  0.650200  1.0  -0.5588
  O  O221  1  0.035460  0.387080  0.186330  1.0  -0.5534
  O  O222  1  0.129190  0.552590  0.261630  1.0  -0.557
  O  O223  1  0.988360  0.386140  0.007520  1.0  -0.5925
  O  O224  1  0.864230  0.350510  0.891410  1.0  -0.5507
  O  O225  1  0.733770  0.839430  0.935000  1.0  -0.569
  O  O226  1  0.572900  0.815100  0.849800  1.0  -0.5577
  O  O227  1  0.612920  0.964540  0.313670  1.0  -0.5543
  O  O228  1  0.447410  0.870810  0.238370  1.0  -0.5589
  O  O229  1  0.386140  0.988360  0.507520  1.0  -0.5926
  O  O230  1  0.350510  0.864230  0.391410  1.0  -0.5539
  O  O231  1  0.839430  0.733770  0.435000  1.0  -0.5704
  O  O232  1  0.815100  0.572900  0.349800  1.0  -0.5582
  O  O233  1  0.964540  0.612920  0.813670  1.0  -0.5534
  O  O234  1  0.870810  0.447410  0.738370  1.0  -0.5572
  O  O235  1  0.011640  0.613860  0.992480  1.0  -0.5923
  O  O236  1  0.135770  0.649490  0.108590  1.0  -0.5503
  O  O237  1  0.266230  0.160570  0.065000  1.0  -0.5648
  O  O238  1  0.427100  0.184900  0.150200  1.0  -0.558
  O  O239  1  0.387080  0.035460  0.686330  1.0  -0.5536
  O  O240  1  0.552590  0.129190  0.761630  1.0  -0.5575
