# generated using pymatgen
data_ZnH20C22(NO2)2
_symmetry_space_group_name_H-M   'P 1'
_cell_length_a   6.27700000
_cell_length_b   17.70200000
_cell_length_c   20.48600000
_cell_angle_alpha   90.00000000
_cell_angle_beta   97.56500000
_cell_angle_gamma   90.00000000
_symmetry_Int_Tables_number   1
_chemical_formula_structural   ZnH20C22(NO2)2
_chemical_formula_sum   'Zn4 H80 C88 N8 O16'
_cell_volume   2256.49851070
_cell_formula_units_Z   4
loop_
 _symmetry_equiv_pos_site_id
 _symmetry_equiv_pos_as_xyz
  1  'x, y, z'
loop_
 _atom_site_type_symbol
 _atom_site_label
 _atom_site_symmetry_multiplicity
 _atom_site_fract_x
 _atom_site_fract_y
 _atom_site_fract_z
 _atom_site_occupancy
 _atom_site_charge
  Zn  Zn1  1  0.189600  0.512750  0.776380  1.0  0.8817
  Zn  Zn2  1  0.310400  0.012750  0.723620  1.0  0.8822
  Zn  Zn3  1  0.810400  0.487250  0.223620  1.0  0.8823
  Zn  Zn4  1  0.689600  0.987250  0.276380  1.0  0.8817
  H  H5  1  0.017400  0.791000  0.593400  1.0  0.0988
  H  H6  1  0.233500  0.756900  0.515900  1.0  0.1016
  H  H7  1  0.564100  0.704700  0.547200  1.0  0.1013
  H  H8  1  0.683000  0.687000  0.657300  1.0  0.0923
  H  H9  1  0.656900  0.707000  0.769700  1.0  0.1282
  H  H10  1  0.468700  0.755900  0.790700  1.0  0.1361
  H  H11  1  0.090900  0.753500  0.760000  1.0  0.1217
  H  H12  1  0.932900  0.790600  0.703400  1.0  0.128
  H  H13  1  0.735500  0.475300  0.723200  1.0  0.0748
  H  H14  1  0.509000  0.476900  0.627500  1.0  0.1249
  H  H15  1  0.964500  0.583800  0.543000  1.0  0.1262
  H  H16  1  0.178900  0.579700  0.641800  1.0  0.0699
  H  H17  1  0.653100  0.539900  0.473500  1.0  0.0874
  H  H18  1  0.471200  0.575300  0.508800  1.0  0.0936
  H  H19  1  0.017500  0.396900  0.862900  1.0  0.0734
  H  H20  1  0.813000  0.387700  0.945900  1.0  0.1205
  H  H21  1  0.700400  0.608400  0.931300  1.0  0.1142
  H  H22  1  0.918500  0.615500  0.850700  1.0  0.0969
  H  H23  1  0.660900  0.528900  0.039400  1.0  0.0827
  H  H24  1  0.619000  0.443400  0.024700  1.0  0.0878
  H  H25  1  0.482600  0.291000  0.906600  1.0  0.0989
  H  H26  1  0.266500  0.256900  0.984100  1.0  0.1014
  H  H27  1  0.935900  0.204700  0.952800  1.0  0.1023
  H  H28  1  0.817000  0.187000  0.842700  1.0  0.0922
  H  H29  1  0.843100  0.207000  0.730300  1.0  0.1279
  H  H30  1  0.031300  0.255900  0.709300  1.0  0.1345
  H  H31  1  0.409100  0.253500  0.740000  1.0  0.1188
  H  H32  1  0.567100  0.290600  0.796600  1.0  0.1286
  H  H33  1  0.764500  0.975300  0.776800  1.0  0.0751
  H  H34  1  0.991000  0.976900  0.872500  1.0  0.1254
  H  H35  1  0.535500  0.083800  0.957000  1.0  0.1253
  H  H36  1  0.321100  0.079700  0.858200  1.0  0.0697
  H  H37  1  0.846900  0.039900  0.026500  1.0  0.0864
  H  H38  1  0.028800  0.075300  0.991200  1.0  0.0925
  H  H39  1  0.482500  0.896900  0.637100  1.0  0.0736
  H  H40  1  0.687000  0.887700  0.554100  1.0  0.1202
  H  H41  1  0.799600  0.108400  0.568700  1.0  0.1143
  H  H42  1  0.581500  0.115500  0.649300  1.0  0.0967
  H  H43  1  0.839100  0.028900  0.460600  1.0  0.0826
  H  H44  1  0.881000  0.943400  0.475300  1.0  0.0867
  H  H45  1  0.982600  0.209000  0.406600  1.0  0.0991
  H  H46  1  0.766500  0.243100  0.484100  1.0  0.1015
  H  H47  1  0.435900  0.295300  0.452800  1.0  0.1022
  H  H48  1  0.317000  0.313000  0.342700  1.0  0.0923
  H  H49  1  0.343100  0.293000  0.230300  1.0  0.1273
  H  H50  1  0.531300  0.244100  0.209300  1.0  0.1346
  H  H51  1  0.909100  0.246500  0.240000  1.0  0.119
  H  H52  1  0.067100  0.209400  0.296600  1.0  0.1289
  H  H53  1  0.264500  0.524700  0.276800  1.0  0.0753
  H  H54  1  0.491000  0.523100  0.372500  1.0  0.1259
  H  H55  1  0.035500  0.416200  0.457000  1.0  0.1254
  H  H56  1  0.821100  0.420300  0.358200  1.0  0.0698
  H  H57  1  0.346900  0.460100  0.526500  1.0  0.0866
  H  H58  1  0.528800  0.424700  0.491200  1.0  0.0938
  H  H59  1  0.982500  0.603100  0.137100  1.0  0.0733
  H  H60  1  0.187000  0.612300  0.054100  1.0  0.1205
  H  H61  1  0.299600  0.391600  0.068700  1.0  0.1117
  H  H62  1  0.081500  0.384500  0.149300  1.0  0.0965
  H  H63  1  0.339100  0.471100  0.960600  1.0  0.0817
  H  H64  1  0.381000  0.556600  0.975300  1.0  0.0887
  H  H65  1  0.517400  0.709000  0.093400  1.0  0.0988
  H  H66  1  0.733500  0.743100  0.015900  1.0  0.1016
  H  H67  1  0.064100  0.795300  0.047200  1.0  0.1013
  H  H68  1  0.183000  0.813000  0.157300  1.0  0.0923
  H  H69  1  0.156900  0.793000  0.269700  1.0  0.1282
  H  H70  1  0.968700  0.744100  0.290700  1.0  0.1365
  H  H71  1  0.590900  0.746500  0.260000  1.0  0.1215
  H  H72  1  0.432900  0.709400  0.203400  1.0  0.1282
  H  H73  1  0.235500  0.024700  0.223200  1.0  0.0747
  H  H74  1  0.009000  0.023100  0.127500  1.0  0.1253
  H  H75  1  0.464500  0.916200  0.043000  1.0  0.1265
  H  H76  1  0.678900  0.920300  0.141800  1.0  0.0697
  H  H77  1  0.153100  0.960100  0.973500  1.0  0.0866
  H  H78  1  0.971200  0.924700  0.008800  1.0  0.0937
  H  H79  1  0.517500  0.103100  0.362900  1.0  0.0733
  H  H80  1  0.313000  0.112300  0.445900  1.0  0.1206
  H  H81  1  0.200400  0.891600  0.431300  1.0  0.1111
  H  H82  1  0.418500  0.884500  0.350700  1.0  0.0964
  H  H83  1  0.160900  0.971100  0.539400  1.0  0.0834
  H  H84  1  0.119000  0.056600  0.524700  1.0  0.0882
  C  C85  1  0.422600  0.728900  0.692600  1.0  0.0589
  C  C86  1  0.220000  0.760900  0.673600  1.0  0.0691
  C  C87  1  0.152200  0.770300  0.607000  1.0  -0.137
  C  C88  1  0.281600  0.749600  0.560300  1.0  -0.0929
  C  C89  1  0.477900  0.718700  0.578800  1.0  -0.0995
  C  C90  1  0.548400  0.708300  0.644700  1.0  -0.1328
  C  C91  1  0.502000  0.713200  0.764100  1.0  -0.36
  C  C92  1  0.398400  0.642400  0.787400  1.0  0.7246
  C  C93  1  0.081500  0.788900  0.723700  1.0  -0.358
  C  C94  1  0.146600  0.866000  0.749900  1.0  0.7408
  C  C95  1  0.782600  0.496700  0.686200  1.0  0.1955
  C  C96  1  0.645600  0.497700  0.629000  1.0  -0.2101
  C  C97  1  0.709500  0.530100  0.572300  1.0  0.1525
  C  C98  1  0.914400  0.561000  0.578900  1.0  -0.2318
  C  C99  1  0.043000  0.558000  0.638300  1.0  0.1887
  C  C100  1  0.564800  0.531800  0.508400  1.0  -0.1592
  C  C101  1  0.955600  0.440400  0.877500  1.0  0.1864
  C  C102  1  0.832800  0.434600  0.927200  1.0  -0.2204
  C  C103  1  0.737200  0.497700  0.950200  1.0  0.1641
  C  C104  1  0.768000  0.564900  0.918900  1.0  -0.1986
  C  C105  1  0.896300  0.569000  0.869800  1.0  0.1806
  C  C106  1  0.600800  0.493600  0.005700  1.0  -0.1535
  C  C107  1  0.077400  0.228900  0.807400  1.0  0.0585
  C  C108  1  0.280000  0.260900  0.826400  1.0  0.069
  C  C109  1  0.347800  0.270300  0.893000  1.0  -0.1381
  C  C110  1  0.218400  0.249600  0.939700  1.0  -0.0921
  C  C111  1  0.022100  0.218700  0.921200  1.0  -0.0991
  C  C112  1  0.951600  0.208300  0.855300  1.0  -0.132
  C  C113  1  0.998000  0.213200  0.735900  1.0  -0.3603
  C  C114  1  0.101600  0.142400  0.712600  1.0  0.7238
  C  C115  1  0.418500  0.288900  0.776300  1.0  -0.3576
  C  C116  1  0.353400  0.366000  0.750100  1.0  0.7414
  C  C117  1  0.717400  0.996700  0.813800  1.0  0.1947
  C  C118  1  0.854400  0.997700  0.871000  1.0  -0.2098
  C  C119  1  0.790500  0.030100  0.927700  1.0  0.1521
  C  C120  1  0.585600  0.061000  0.921100  1.0  -0.2317
  C  C121  1  0.457000  0.058000  0.861700  1.0  0.1889
  C  C122  1  0.935200  0.031800  0.991600  1.0  -0.1593
  C  C123  1  0.544400  0.940400  0.622500  1.0  0.1861
  C  C124  1  0.667200  0.934600  0.572800  1.0  -0.22
  C  C125  1  0.762800  0.997700  0.549800  1.0  0.1634
  C  C126  1  0.732000  0.064900  0.581100  1.0  -0.1945
  C  C127  1  0.603700  0.069000  0.630200  1.0  0.1789
  C  C128  1  0.899200  0.993600  0.494300  1.0  -0.1544
  C  C129  1  0.577400  0.271100  0.307400  1.0  0.0587
  C  C130  1  0.780000  0.239100  0.326400  1.0  0.0692
  C  C131  1  0.847800  0.229700  0.393000  1.0  -0.138
  C  C132  1  0.718400  0.250400  0.439700  1.0  -0.0923
  C  C133  1  0.522100  0.281300  0.421200  1.0  -0.0994
  C  C134  1  0.451600  0.291700  0.355300  1.0  -0.1315
  C  C135  1  0.498000  0.286800  0.235900  1.0  -0.3595
  C  C136  1  0.601600  0.357600  0.212600  1.0  0.7237
  C  C137  1  0.918500  0.211100  0.276300  1.0  -0.358
  C  C138  1  0.853400  0.134000  0.250100  1.0  0.7405
  C  C139  1  0.217400  0.503300  0.313800  1.0  0.1949
  C  C140  1  0.354400  0.502300  0.371000  1.0  -0.2098
  C  C141  1  0.290500  0.469900  0.427700  1.0  0.1523
  C  C142  1  0.085600  0.439000  0.421100  1.0  -0.2316
  C  C143  1  0.957000  0.442000  0.361700  1.0  0.1891
  C  C144  1  0.435200  0.468200  0.491600  1.0  -0.1604
  C  C145  1  0.044400  0.559600  0.122500  1.0  0.1868
  C  C146  1  0.167200  0.565400  0.072800  1.0  -0.2205
  C  C147  1  0.262800  0.502300  0.049800  1.0  0.1633
  C  C148  1  0.232000  0.435100  0.081100  1.0  -0.1931
  C  C149  1  0.103700  0.431000  0.130200  1.0  0.1807
  C  C150  1  0.399200  0.506400  0.994300  1.0  -0.1546
  C  C151  1  0.922600  0.771100  0.192600  1.0  0.0591
  C  C152  1  0.720000  0.739100  0.173600  1.0  0.0691
  C  C153  1  0.652200  0.729700  0.107000  1.0  -0.1369
  C  C154  1  0.781600  0.750400  0.060300  1.0  -0.0928
  C  C155  1  0.977900  0.781300  0.078800  1.0  -0.0996
  C  C156  1  0.048400  0.791700  0.144700  1.0  -0.132
  C  C157  1  0.002000  0.786800  0.264100  1.0  -0.36
  C  C158  1  0.898400  0.857600  0.287400  1.0  0.7245
  C  C159  1  0.581500  0.711100  0.223700  1.0  -0.3566
  C  C160  1  0.646600  0.634000  0.249900  1.0  0.7402
  C  C161  1  0.282600  0.003300  0.186200  1.0  0.1947
  C  C162  1  0.145600  0.002300  0.129000  1.0  -0.2106
  C  C163  1  0.209500  0.969900  0.072300  1.0  0.1528
  C  C164  1  0.414400  0.939000  0.078900  1.0  -0.2314
  C  C165  1  0.543000  0.942000  0.138300  1.0  0.1892
  C  C166  1  0.064800  0.968200  0.008400  1.0  -0.1601
  C  C167  1  0.455600  0.059600  0.377500  1.0  0.1868
  C  C168  1  0.332800  0.065400  0.427200  1.0  -0.221
  C  C169  1  0.237200  0.002300  0.450200  1.0  0.1639
  C  C170  1  0.268000  0.935100  0.418900  1.0  -0.196
  C  C171  1  0.396300  0.931000  0.369800  1.0  0.1815
  C  C172  1  0.100800  0.006400  0.505700  1.0  -0.1532
  N  N173  1  0.981100  0.524900  0.691700  1.0  -0.3722
  N  N174  1  0.991000  0.506900  0.848600  1.0  -0.3563
  N  N175  1  0.518900  0.024900  0.808300  1.0  -0.3723
  N  N176  1  0.509000  0.006900  0.651400  1.0  -0.3559
  N  N177  1  0.018900  0.475100  0.308300  1.0  -0.372
  N  N178  1  0.009000  0.493100  0.151400  1.0  -0.3554
  N  N179  1  0.481100  0.975100  0.191700  1.0  -0.3723
  N  N180  1  0.491000  0.993100  0.348600  1.0  -0.3558
  O  O181  1  0.412200  0.583700  0.755200  1.0  -0.6205
  O  O182  1  0.301300  0.642900  0.834300  1.0  -0.6318
  O  O183  1  0.188600  0.913500  0.707200  1.0  -0.6465
  O  O184  1  0.156900  0.880600  0.809300  1.0  -0.6214
  O  O185  1  0.087800  0.083700  0.744800  1.0  -0.6208
  O  O186  1  0.198700  0.142900  0.665700  1.0  -0.6332
  O  O187  1  0.311400  0.413500  0.792800  1.0  -0.6434
  O  O188  1  0.343100  0.380600  0.690700  1.0  -0.6213
  O  O189  1  0.587800  0.416300  0.244800  1.0  -0.6206
  O  O190  1  0.698700  0.357100  0.165700  1.0  -0.6329
  O  O191  1  0.811400  0.086500  0.292800  1.0  -0.6452
  O  O192  1  0.843100  0.119400  0.190700  1.0  -0.6211
  O  O193  1  0.912200  0.916300  0.255200  1.0  -0.6205
  O  O194  1  0.801300  0.857100  0.334300  1.0  -0.6316
  O  O195  1  0.688600  0.586500  0.207200  1.0  -0.647
  O  O196  1  0.656900  0.619400  0.309300  1.0  -0.6208
