# generated using pymatgen
data_Zn3H6C12N6O7
_symmetry_space_group_name_H-M   'P 1'
_cell_length_a   20.07870000
_cell_length_b   20.07870000
_cell_length_c   20.07870000
_cell_angle_alpha   90.00000000
_cell_angle_beta   90.00000000
_cell_angle_gamma   90.00000000
_symmetry_Int_Tables_number   1
_chemical_formula_structural   Zn3H6C12N6O7
_chemical_formula_sum   'Zn24 H48 C96 N48 O56'
_cell_volume   8094.81210884
_cell_formula_units_Z   8
loop_
 _symmetry_equiv_pos_site_id
 _symmetry_equiv_pos_as_xyz
  1  'x, y, z'
loop_
 _atom_site_type_symbol
 _atom_site_label
 _atom_site_symmetry_multiplicity
 _atom_site_fract_x
 _atom_site_fract_y
 _atom_site_fract_z
 _atom_site_occupancy
 _atom_site_charge
  Zn  Zn1  1  0.251190  0.270530  0.145700  1.0  0.9848
  Zn  Zn2  1  0.248810  0.729470  0.645700  1.0  0.9849
  Zn  Zn3  1  0.748810  0.770530  0.354300  1.0  0.9866
  Zn  Zn4  1  0.751190  0.229470  0.854300  1.0  0.9877
  Zn  Zn5  1  0.145700  0.251190  0.270530  1.0  0.9857
  Zn  Zn6  1  0.645700  0.248810  0.729470  1.0  0.9863
  Zn  Zn7  1  0.354300  0.748810  0.770530  1.0  0.9852
  Zn  Zn8  1  0.854300  0.751190  0.229470  1.0  0.9855
  Zn  Zn9  1  0.270530  0.145700  0.251190  1.0  0.9862
  Zn  Zn10  1  0.729470  0.645700  0.248810  1.0  0.9862
  Zn  Zn11  1  0.770530  0.354300  0.748810  1.0  0.987
  Zn  Zn12  1  0.229470  0.854300  0.751190  1.0  0.9858
  Zn  Zn13  1  0.748810  0.729470  0.854300  1.0  0.987
  Zn  Zn14  1  0.751190  0.270530  0.354300  1.0  0.9871
  Zn  Zn15  1  0.251190  0.229470  0.645700  1.0  0.9852
  Zn  Zn16  1  0.248810  0.770530  0.145700  1.0  0.9846
  Zn  Zn17  1  0.854300  0.748810  0.729470  1.0  0.9855
  Zn  Zn18  1  0.354300  0.751190  0.270530  1.0  0.9852
  Zn  Zn19  1  0.645700  0.251190  0.229470  1.0  0.9862
  Zn  Zn20  1  0.145700  0.248810  0.770530  1.0  0.9858
  Zn  Zn21  1  0.729470  0.854300  0.748810  1.0  0.9864
  Zn  Zn22  1  0.270530  0.354300  0.751190  1.0  0.9863
  Zn  Zn23  1  0.229470  0.645700  0.251190  1.0  0.9858
  Zn  Zn24  1  0.770530  0.145700  0.248810  1.0  0.9867
  H  H25  1  0.410500  0.303600  0.129900  1.0  0.117
  H  H26  1  0.433000  0.159600  0.262900  1.0  0.1201
  H  H27  1  0.089500  0.696400  0.629900  1.0  0.1164
  H  H28  1  0.067000  0.840400  0.762900  1.0  0.1203
  H  H29  1  0.589500  0.803600  0.370100  1.0  0.1178
  H  H30  1  0.567000  0.659600  0.237100  1.0  0.1201
  H  H31  1  0.910500  0.196400  0.870100  1.0  0.1176
  H  H32  1  0.933000  0.340400  0.737100  1.0  0.1202
  H  H33  1  0.129900  0.410500  0.303600  1.0  0.117
  H  H34  1  0.262900  0.433000  0.159600  1.0  0.1202
  H  H35  1  0.629900  0.089500  0.696400  1.0  0.116
  H  H36  1  0.762900  0.067000  0.840400  1.0  0.1198
  H  H37  1  0.370100  0.589500  0.803600  1.0  0.1169
  H  H38  1  0.237100  0.567000  0.659600  1.0  0.1198
  H  H39  1  0.870100  0.910500  0.196400  1.0  0.1166
  H  H40  1  0.737100  0.933000  0.340400  1.0  0.1203
  H  H41  1  0.303600  0.129900  0.410500  1.0  0.1168
  H  H42  1  0.159600  0.262900  0.433000  1.0  0.1209
  H  H43  1  0.696400  0.629900  0.089500  1.0  0.1164
  H  H44  1  0.840400  0.762900  0.067000  1.0  0.121
  H  H45  1  0.803600  0.370100  0.589500  1.0  0.1169
  H  H46  1  0.659600  0.237100  0.567000  1.0  0.1205
  H  H47  1  0.196400  0.870100  0.910500  1.0  0.1173
  H  H48  1  0.340400  0.737100  0.933000  1.0  0.1206
  H  H49  1  0.589500  0.696400  0.870100  1.0  0.1182
  H  H50  1  0.567000  0.840400  0.737100  1.0  0.1202
  H  H51  1  0.910500  0.303600  0.370100  1.0  0.1179
  H  H52  1  0.933000  0.159600  0.237100  1.0  0.1199
  H  H53  1  0.410500  0.196400  0.629900  1.0  0.1163
  H  H54  1  0.433000  0.340400  0.762900  1.0  0.1199
  H  H55  1  0.089500  0.803600  0.129900  1.0  0.1167
  H  H56  1  0.067000  0.659600  0.262900  1.0  0.121
  H  H57  1  0.870100  0.589500  0.696400  1.0  0.1166
  H  H58  1  0.737100  0.567000  0.840400  1.0  0.1203
  H  H59  1  0.370100  0.910500  0.303600  1.0  0.1171
  H  H60  1  0.237100  0.933000  0.159600  1.0  0.1201
  H  H61  1  0.629900  0.410500  0.196400  1.0  0.116
  H  H62  1  0.762900  0.433000  0.340400  1.0  0.1202
  H  H63  1  0.129900  0.089500  0.803600  1.0  0.1168
  H  H64  1  0.262900  0.067000  0.659600  1.0  0.1197
  H  H65  1  0.696400  0.870100  0.589500  1.0  0.117
  H  H66  1  0.840400  0.737100  0.567000  1.0  0.1206
  H  H67  1  0.303600  0.370100  0.910500  1.0  0.1172
  H  H68  1  0.159600  0.237100  0.933000  1.0  0.1209
  H  H69  1  0.196400  0.629900  0.410500  1.0  0.1169
  H  H70  1  0.340400  0.762900  0.433000  1.0  0.1207
  H  H71  1  0.803600  0.129900  0.089500  1.0  0.1167
  H  H72  1  0.659600  0.262900  0.067000  1.0  0.1209
  C  C73  1  0.402100  0.268900  0.159400  1.0  0.0228
  C  C74  1  0.450150  0.236700  0.197300  1.0  -0.1028
  C  C75  1  0.521800  0.250300  0.200700  1.0  0.6696
  C  C76  1  0.414700  0.189700  0.232800  1.0  0.0278
  C  C77  1  0.097900  0.731100  0.659400  1.0  0.0227
  C  C78  1  0.049850  0.763300  0.697300  1.0  -0.1027
  C  C79  1  0.978200  0.749700  0.700700  1.0  0.6691
  C  C80  1  0.085300  0.810300  0.732800  1.0  0.0267
  C  C81  1  0.597900  0.768900  0.340600  1.0  0.0222
  C  C82  1  0.549850  0.736700  0.302700  1.0  -0.1033
  C  C83  1  0.478200  0.750300  0.299300  1.0  0.6689
  C  C84  1  0.585300  0.689700  0.267200  1.0  0.0273
  C  C85  1  0.902100  0.231100  0.840600  1.0  0.0202
  C  C86  1  0.950150  0.263300  0.802700  1.0  -0.1049
  C  C87  1  0.021800  0.249700  0.799300  1.0  0.6697
  C  C88  1  0.914700  0.310300  0.767200  1.0  0.029
  C  C89  1  0.159400  0.402100  0.268900  1.0  0.025
  C  C90  1  0.197300  0.450150  0.236700  1.0  -0.1034
  C  C91  1  0.200700  0.521800  0.250300  1.0  0.6709
  C  C92  1  0.232800  0.414700  0.189700  1.0  0.0294
  C  C93  1  0.659400  0.097900  0.731100  1.0  0.0252
  C  C94  1  0.697300  0.049850  0.763300  1.0  -0.103
  C  C95  1  0.700700  0.978200  0.749700  1.0  0.6709
  C  C96  1  0.732800  0.085300  0.810300  1.0  0.029
  C  C97  1  0.340600  0.597900  0.768900  1.0  0.025
  C  C98  1  0.302700  0.549850  0.736700  1.0  -0.1034
  C  C99  1  0.299300  0.478200  0.750300  1.0  0.6712
  C  C100  1  0.267200  0.585300  0.689700  1.0  0.0291
  C  C101  1  0.840600  0.902100  0.231100  1.0  0.0215
  C  C102  1  0.802700  0.950150  0.263300  1.0  -0.1063
  C  C103  1  0.799300  0.021800  0.249700  1.0  0.671
  C  C104  1  0.767200  0.914700  0.310300  1.0  0.028
  C  C105  1  0.268900  0.159400  0.402100  1.0  0.0248
  C  C106  1  0.236700  0.197300  0.450150  1.0  -0.1045
  C  C107  1  0.250300  0.200700  0.521800  1.0  0.6721
  C  C108  1  0.189700  0.232800  0.414700  1.0  0.03
  C  C109  1  0.731100  0.659400  0.097900  1.0  0.0259
  C  C110  1  0.763300  0.697300  0.049850  1.0  -0.1046
  C  C111  1  0.749700  0.700700  0.978200  1.0  0.6718
  C  C112  1  0.810300  0.732800  0.085300  1.0  0.0314
  C  C113  1  0.768900  0.340600  0.597900  1.0  0.0251
  C  C114  1  0.736700  0.302700  0.549850  1.0  -0.1039
  C  C115  1  0.750300  0.299300  0.478200  1.0  0.6713
  C  C116  1  0.689700  0.267200  0.585300  1.0  0.0298
  C  C117  1  0.231100  0.840600  0.902100  1.0  0.0215
  C  C118  1  0.263300  0.802700  0.950150  1.0  -0.1086
  C  C119  1  0.249700  0.799300  0.021800  1.0  0.6724
  C  C120  1  0.310300  0.767200  0.914700  1.0  0.0296
  C  C121  1  0.597900  0.731100  0.840600  1.0  0.0233
  C  C122  1  0.549850  0.763300  0.802700  1.0  -0.1027
  C  C123  1  0.478200  0.749700  0.799300  1.0  0.669
  C  C124  1  0.585300  0.810300  0.767200  1.0  0.0283
  C  C125  1  0.902100  0.268900  0.340600  1.0  0.0231
  C  C126  1  0.950150  0.236700  0.302700  1.0  -0.1026
  C  C127  1  0.021800  0.250300  0.299300  1.0  0.6695
  C  C128  1  0.914700  0.189700  0.267200  1.0  0.0278
  C  C129  1  0.402100  0.231100  0.659400  1.0  0.0224
  C  C130  1  0.450150  0.263300  0.697300  1.0  -0.1023
  C  C131  1  0.521800  0.249700  0.700700  1.0  0.6697
  C  C132  1  0.414700  0.310300  0.732800  1.0  0.0282
  C  C133  1  0.097900  0.768900  0.159400  1.0  0.0194
  C  C134  1  0.049850  0.736700  0.197300  1.0  -0.1059
  C  C135  1  0.978200  0.750300  0.200700  1.0  0.6689
  C  C136  1  0.085300  0.689700  0.232800  1.0  0.0265
  C  C137  1  0.840600  0.597900  0.731100  1.0  0.0241
  C  C138  1  0.802700  0.549850  0.763300  1.0  -0.1028
  C  C139  1  0.799300  0.478200  0.749700  1.0  0.671
  C  C140  1  0.767200  0.585300  0.810300  1.0  0.0285
  C  C141  1  0.340600  0.902100  0.268900  1.0  0.0248
  C  C142  1  0.302700  0.950150  0.236700  1.0  -0.1032
  C  C143  1  0.299300  0.021800  0.250300  1.0  0.671
  C  C144  1  0.267200  0.914700  0.189700  1.0  0.0292
  C  C145  1  0.659400  0.402100  0.231100  1.0  0.0251
  C  C146  1  0.697300  0.450150  0.263300  1.0  -0.1029
  C  C147  1  0.700700  0.521800  0.249700  1.0  0.6709
  C  C148  1  0.732800  0.414700  0.310300  1.0  0.0293
  C  C149  1  0.159400  0.097900  0.768900  1.0  0.0225
  C  C150  1  0.197300  0.049850  0.736700  1.0  -0.1076
  C  C151  1  0.200700  0.978200  0.750300  1.0  0.671
  C  C152  1  0.232800  0.085300  0.689700  1.0  0.0285
  C  C153  1  0.731100  0.840600  0.597900  1.0  0.0251
  C  C154  1  0.763300  0.802700  0.549850  1.0  -0.1045
  C  C155  1  0.749700  0.799300  0.478200  1.0  0.6719
  C  C156  1  0.810300  0.767200  0.585300  1.0  0.0304
  C  C157  1  0.268900  0.340600  0.902100  1.0  0.0252
  C  C158  1  0.236700  0.302700  0.950150  1.0  -0.1045
  C  C159  1  0.250300  0.299300  0.021800  1.0  0.6721
  C  C160  1  0.189700  0.267200  0.914700  1.0  0.0291
  C  C161  1  0.231100  0.659400  0.402100  1.0  0.0254
  C  C162  1  0.263300  0.697300  0.450150  1.0  -0.1049
  C  C163  1  0.249700  0.700700  0.521800  1.0  0.6723
  C  C164  1  0.310300  0.732800  0.414700  1.0  0.031
  C  C165  1  0.768900  0.159400  0.097900  1.0  0.0217
  C  C166  1  0.736700  0.197300  0.049850  1.0  -0.1078
  C  C167  1  0.750300  0.200700  0.978200  1.0  0.6713
  C  C168  1  0.689700  0.232800  0.085300  1.0  0.0304
  N  N169  1  0.342640  0.243180  0.171050  1.0  -0.2438
  N  N170  1  0.350260  0.193970  0.217480  1.0  -0.1982
  N  N171  1  0.157360  0.756820  0.671050  1.0  -0.2443
  N  N172  1  0.149740  0.806030  0.717480  1.0  -0.1984
  N  N173  1  0.657360  0.743180  0.328950  1.0  -0.2427
  N  N174  1  0.649740  0.693970  0.282520  1.0  -0.1982
  N  N175  1  0.842640  0.256820  0.828950  1.0  -0.2435
  N  N176  1  0.850260  0.306030  0.782520  1.0  -0.1976
  N  N177  1  0.171050  0.342640  0.243180  1.0  -0.2409
  N  N178  1  0.217480  0.350260  0.193970  1.0  -0.1982
  N  N179  1  0.671050  0.157360  0.756820  1.0  -0.2416
  N  N180  1  0.717480  0.149740  0.806030  1.0  -0.1974
  N  N181  1  0.328950  0.657360  0.743180  1.0  -0.2403
  N  N182  1  0.282520  0.649740  0.693970  1.0  -0.1987
  N  N183  1  0.828950  0.842640  0.256820  1.0  -0.2396
  N  N184  1  0.782520  0.850260  0.306030  1.0  -0.1985
  N  N185  1  0.243180  0.171050  0.342640  1.0  -0.2444
  N  N186  1  0.193970  0.217480  0.350260  1.0  -0.2003
  N  N187  1  0.756820  0.671050  0.157360  1.0  -0.2429
  N  N188  1  0.806030  0.717480  0.149740  1.0  -0.1983
  N  N189  1  0.743180  0.328950  0.657360  1.0  -0.243
  N  N190  1  0.693970  0.282520  0.649740  1.0  -0.2008
  N  N191  1  0.256820  0.828950  0.842640  1.0  -0.2443
  N  N192  1  0.306030  0.782520  0.850260  1.0  -0.1999
  N  N193  1  0.657360  0.756820  0.828950  1.0  -0.2429
  N  N194  1  0.649740  0.806030  0.782520  1.0  -0.1985
  N  N195  1  0.842640  0.243180  0.328950  1.0  -0.2434
  N  N196  1  0.850260  0.193970  0.282520  1.0  -0.1982
  N  N197  1  0.342640  0.256820  0.671050  1.0  -0.2444
  N  N198  1  0.350260  0.306030  0.717480  1.0  -0.1976
  N  N199  1  0.157360  0.743180  0.171050  1.0  -0.2439
  N  N200  1  0.149740  0.693970  0.217480  1.0  -0.1979
  N  N201  1  0.828950  0.657360  0.756820  1.0  -0.2401
  N  N202  1  0.782520  0.649740  0.806030  1.0  -0.1978
  N  N203  1  0.328950  0.842640  0.243180  1.0  -0.2396
  N  N204  1  0.282520  0.850260  0.193970  1.0  -0.1989
  N  N205  1  0.671050  0.342640  0.256820  1.0  -0.2409
  N  N206  1  0.717480  0.350260  0.306030  1.0  -0.198
  N  N207  1  0.171050  0.157360  0.743180  1.0  -0.2417
  N  N208  1  0.217480  0.149740  0.693970  1.0  -0.1982
  N  N209  1  0.756820  0.828950  0.657360  1.0  -0.2432
  N  N210  1  0.806030  0.782520  0.649740  1.0  -0.1985
  N  N211  1  0.243180  0.328950  0.842640  1.0  -0.2443
  N  N212  1  0.193970  0.282520  0.850260  1.0  -0.2015
  N  N213  1  0.256820  0.671050  0.342640  1.0  -0.2444
  N  N214  1  0.306030  0.717480  0.350260  1.0  -0.199
  N  N215  1  0.743180  0.171050  0.157360  1.0  -0.2427
  N  N216  1  0.693970  0.217480  0.149740  1.0  -0.2002
  O  O217  1  0.548990  0.292350  0.164800  1.0  -0.53
  O  O218  1  0.554960  0.216680  0.243170  1.0  -0.5836
  O  O219  1  0.951010  0.707650  0.664800  1.0  -0.5315
  O  O220  1  0.945040  0.783320  0.743170  1.0  -0.5823
  O  O221  1  0.451010  0.792350  0.335200  1.0  -0.528
  O  O222  1  0.445040  0.716680  0.256830  1.0  -0.5849
  O  O223  1  0.048990  0.207650  0.835200  1.0  -0.5284
  O  O224  1  0.054960  0.283320  0.756830  1.0  -0.5844
  O  O225  1  0.164800  0.548990  0.292350  1.0  -0.5286
  O  O226  1  0.243170  0.554960  0.216680  1.0  -0.5811
  O  O227  1  0.664800  0.951010  0.707650  1.0  -0.531
  O  O228  1  0.743170  0.945040  0.783320  1.0  -0.5802
  O  O229  1  0.335200  0.451010  0.792350  1.0  -0.5305
  O  O230  1  0.256830  0.445040  0.716680  1.0  -0.5807
  O  O231  1  0.835200  0.048990  0.207650  1.0  -0.5309
  O  O232  1  0.756830  0.054960  0.283320  1.0  -0.5806
  O  O233  1  0.292350  0.164800  0.548990  1.0  -0.5327
  O  O234  1  0.216680  0.243170  0.554960  1.0  -0.5811
  O  O235  1  0.707650  0.664800  0.951010  1.0  -0.5328
  O  O236  1  0.783320  0.743170  0.945040  1.0  -0.581
  O  O237  1  0.792350  0.335200  0.451010  1.0  -0.531
  O  O238  1  0.716680  0.256830  0.445040  1.0  -0.5816
  O  O239  1  0.207650  0.835200  0.048990  1.0  -0.5318
  O  O240  1  0.283320  0.756830  0.054960  1.0  -0.5815
  O  O241  1  0.451010  0.707650  0.835200  1.0  -0.5287
  O  O242  1  0.445040  0.783320  0.756830  1.0  -0.5846
  O  O243  1  0.048990  0.292350  0.335200  1.0  -0.5279
  O  O244  1  0.054960  0.216680  0.256830  1.0  -0.5842
  O  O245  1  0.548990  0.207650  0.664800  1.0  -0.5311
  O  O246  1  0.554960  0.283320  0.743170  1.0  -0.5822
  O  O247  1  0.951010  0.792350  0.164800  1.0  -0.5301
  O  O248  1  0.945040  0.716680  0.243170  1.0  -0.5837
  O  O249  1  0.835200  0.451010  0.707650  1.0  -0.5303
  O  O250  1  0.756830  0.445040  0.783320  1.0  -0.5806
  O  O251  1  0.335200  0.048990  0.292350  1.0  -0.5296
  O  O252  1  0.256830  0.054960  0.216680  1.0  -0.5805
  O  O253  1  0.664800  0.548990  0.207650  1.0  -0.5315
  O  O254  1  0.743170  0.554960  0.283320  1.0  -0.5799
  O  O255  1  0.164800  0.951010  0.792350  1.0  -0.5295
  O  O256  1  0.243170  0.945040  0.716680  1.0  -0.5815
  O  O257  1  0.707650  0.835200  0.451010  1.0  -0.5316
  O  O258  1  0.783320  0.756830  0.445040  1.0  -0.5809
  O  O259  1  0.292350  0.335200  0.048990  1.0  -0.531
  O  O260  1  0.216680  0.256830  0.054960  1.0  -0.5818
  O  O261  1  0.207650  0.664800  0.548990  1.0  -0.5334
  O  O262  1  0.283320  0.743170  0.554960  1.0  -0.5807
  O  O263  1  0.792350  0.164800  0.951010  1.0  -0.5323
  O  O264  1  0.716680  0.243170  0.945040  1.0  -0.5817
  O  O265  1  0.201200  0.201200  0.201200  1.0  -0.8646
  O  O266  1  0.298800  0.798800  0.701200  1.0  -0.8656
  O  O267  1  0.798800  0.701200  0.298800  1.0  -0.8645
  O  O268  1  0.701200  0.298800  0.798800  1.0  -0.8654
  O  O269  1  0.798800  0.798800  0.798800  1.0  -0.8656
  O  O270  1  0.701200  0.201200  0.298800  1.0  -0.8646
  O  O271  1  0.201200  0.298800  0.701200  1.0  -0.8649
  O  O272  1  0.298800  0.701200  0.201200  1.0  -0.8643
