# generated using pymatgen
data_TbH3(C3O2)3
_symmetry_space_group_name_H-M   'P 1'
_cell_length_a   10.89240000
_cell_length_b   10.96310000
_cell_length_c   16.77400000
_cell_angle_alpha   90.00000000
_cell_angle_beta   90.00000000
_cell_angle_gamma   102.25400000
_symmetry_Int_Tables_number   1
_chemical_formula_structural   TbH3(C3O2)3
_chemical_formula_sum   'Tb4 H12 C36 O24'
_cell_volume   1957.42122970
_cell_formula_units_Z   4
loop_
 _symmetry_equiv_pos_site_id
 _symmetry_equiv_pos_as_xyz
  1  'x, y, z'
loop_
 _atom_site_type_symbol
 _atom_site_label
 _atom_site_symmetry_multiplicity
 _atom_site_fract_x
 _atom_site_fract_y
 _atom_site_fract_z
 _atom_site_occupancy
 _atom_site_charge
  Tb  Tb1  1  0.349010  0.083210  0.887640  1.0  2.1584
  Tb  Tb2  1  0.150990  0.416790  0.387640  1.0  2.1583
  Tb  Tb3  1  0.650990  0.916790  0.112370  1.0  2.1586
  Tb  Tb4  1  0.849010  0.583210  0.612360  1.0  2.1587
  H  H5  1  0.177300  0.757200  0.680600  1.0  0.0839
  H  H6  1  0.393500  0.570200  0.557700  1.0  0.0875
  H  H7  1  0.539300  0.791300  0.739000  1.0  0.0958
  H  H8  1  0.322700  0.742800  0.180600  1.0  0.0852
  H  H9  1  0.106500  0.929800  0.057700  1.0  0.0878
  H  H10  1  0.960700  0.708700  0.239000  1.0  0.0965
  H  H11  1  0.822700  0.242800  0.319400  1.0  0.0849
  H  H12  1  0.606500  0.429800  0.442300  1.0  0.0873
  H  H13  1  0.460700  0.208700  0.261000  1.0  0.0964
  H  H14  1  0.677300  0.257200  0.819400  1.0  0.0839
  H  H15  1  0.893500  0.070200  0.942300  1.0  0.0875
  H  H16  1  0.039300  0.291300  0.761000  1.0  0.0957
  C  C17  1  0.343000  0.878600  0.788000  1.0  0.664
  C  C18  1  0.354800  0.787800  0.721600  1.0  -0.1435
  C  C19  1  0.254900  0.736800  0.672100  1.0  0.0101
  C  C20  1  0.267500  0.656200  0.610400  1.0  -0.186
  C  C21  1  0.384600  0.625400  0.598300  1.0  0.0153
  C  C22  1  0.488800  0.675900  0.646100  1.0  -0.1463
  C  C23  1  0.471300  0.756600  0.706800  1.0  0.0179
  C  C24  1  0.158500  0.604700  0.554600  1.0  0.751
  C  C25  1  0.612500  0.642600  0.634800  1.0  0.6606
  C  C26  1  0.157000  0.621400  0.288000  1.0  0.664
  C  C27  1  0.145200  0.712200  0.221600  1.0  -0.1436
  C  C28  1  0.245100  0.763200  0.172100  1.0  0.0112
  C  C29  1  0.232500  0.843800  0.110400  1.0  -0.186
  C  C30  1  0.115400  0.874600  0.098300  1.0  0.015
  C  C31  1  0.011200  0.824100  0.146100  1.0  -0.1466
  C  C32  1  0.028700  0.743400  0.206800  1.0  0.0183
  C  C33  1  0.341500  0.895300  0.054600  1.0  0.7516
  C  C34  1  0.887500  0.857400  0.134800  1.0  0.6605
  C  C35  1  0.657000  0.121400  0.212000  1.0  0.6635
  C  C36  1  0.645200  0.212200  0.278400  1.0  -0.1432
  C  C37  1  0.745100  0.263200  0.327900  1.0  0.011
  C  C38  1  0.732500  0.343800  0.389600  1.0  -0.186
  C  C39  1  0.615400  0.374600  0.401700  1.0  0.015
  C  C40  1  0.511200  0.324100  0.353900  1.0  -0.1466
  C  C41  1  0.528700  0.243400  0.293200  1.0  0.0178
  C  C42  1  0.841500  0.395300  0.445400  1.0  0.7522
  C  C43  1  0.387500  0.357400  0.365200  1.0  0.6607
  C  C44  1  0.843000  0.378600  0.712000  1.0  0.664
  C  C45  1  0.854800  0.287800  0.778400  1.0  -0.1422
  C  C46  1  0.754900  0.236800  0.827900  1.0  0.01
  C  C47  1  0.767500  0.156200  0.889600  1.0  -0.1854
  C  C48  1  0.884600  0.125400  0.901700  1.0  0.0156
  C  C49  1  0.988800  0.175900  0.853900  1.0  -0.1463
  C  C50  1  0.971300  0.256600  0.793200  1.0  0.0183
  C  C51  1  0.658500  0.104700  0.945400  1.0  0.7509
  C  C52  1  0.112500  0.142600  0.865200  1.0  0.6607
  O  O53  1  0.243800  0.917300  0.795900  1.0  -0.6371
  O  O54  1  0.436800  0.919000  0.831000  1.0  -0.6397
  O  O55  1  0.697900  0.679800  0.684400  1.0  -0.6939
  O  O56  1  0.629700  0.577600  0.575800  1.0  -0.6209
  O  O57  1  0.181800  0.540000  0.497800  1.0  -0.717
  O  O58  1  0.057200  0.635000  0.568100  1.0  -0.7611
  O  O59  1  0.256200  0.582700  0.295900  1.0  -0.6378
  O  O60  1  0.063200  0.581000  0.331000  1.0  -0.6392
  O  O61  1  0.802100  0.820200  0.184400  1.0  -0.6923
  O  O62  1  0.870300  0.922400  0.075800  1.0  -0.6216
  O  O63  1  0.318200  0.960000  0.997800  1.0  -0.7171
  O  O64  1  0.442800  0.865000  0.068100  1.0  -0.7597
  O  O65  1  0.756200  0.082700  0.204100  1.0  -0.639
  O  O66  1  0.563200  0.081000  0.169000  1.0  -0.6404
  O  O67  1  0.302100  0.320200  0.315600  1.0  -0.6936
  O  O68  1  0.370300  0.422400  0.424200  1.0  -0.6206
  O  O69  1  0.818200  0.460000  0.502200  1.0  -0.7175
  O  O70  1  0.942800  0.365000  0.431900  1.0  -0.7611
  O  O71  1  0.743800  0.417300  0.704100  1.0  -0.6383
  O  O72  1  0.936800  0.419000  0.669000  1.0  -0.6409
  O  O73  1  0.197900  0.179800  0.815600  1.0  -0.6948
  O  O74  1  0.129700  0.077600  0.924200  1.0  -0.6198
  O  O75  1  0.681800  0.040000  0.002200  1.0  -0.7175
  O  O76  1  0.557200  0.135000  0.931900  1.0  -0.7629
