# generated using pymatgen
data_CeH7C14(NO3)2
_symmetry_space_group_name_H-M   'P 1'
_cell_length_a   20.01640000
_cell_length_b   7.39720000
_cell_length_c   25.71200000
_cell_angle_alpha   90.00000000
_cell_angle_beta   105.09300000
_cell_angle_gamma   90.00000000
_symmetry_Int_Tables_number   1
_chemical_formula_structural   CeH7C14(NO3)2
_chemical_formula_sum   'Ce8 H56 C112 N16 O48'
_cell_volume   3675.72888841
_cell_formula_units_Z   8
loop_
 _symmetry_equiv_pos_site_id
 _symmetry_equiv_pos_as_xyz
  1  'x, y, z'
loop_
 _atom_site_type_symbol
 _atom_site_label
 _atom_site_symmetry_multiplicity
 _atom_site_fract_x
 _atom_site_fract_y
 _atom_site_fract_z
 _atom_site_occupancy
 _atom_site_charge
  Ce  Ce1  1  0.202610  0.537160  0.248940  1.0  2.2558
  Ce  Ce2  1  0.702610  0.037160  0.248940  1.0  2.2558
  Ce  Ce3  1  0.797390  0.537160  0.251060  1.0  2.2728
  Ce  Ce4  1  0.297390  0.037160  0.251060  1.0  2.2728
  Ce  Ce5  1  0.797390  0.462840  0.751060  1.0  2.274
  Ce  Ce6  1  0.297390  0.962840  0.751060  1.0  2.274
  Ce  Ce7  1  0.202610  0.462840  0.748940  1.0  2.2557
  Ce  Ce8  1  0.702610  0.962840  0.748940  1.0  2.2557
  H  H9  1  0.056500  0.859700  0.088900  1.0  0.1004
  H  H10  1  0.245700  0.912800  0.413400  1.0  0.102
  H  H11  1  0.141000  0.439200  0.124400  1.0  0.081
  H  H12  1  0.062600  0.376500  0.045100  1.0  0.113
  H  H13  1  0.128100  0.327800  0.492000  1.0  0.1254
  H  H14  1  0.164600  0.057700  0.534000  1.0  0.0981
  H  H15  1  0.160400  0.466100  0.377000  1.0  0.3804
  H  H16  1  0.556500  0.359700  0.088900  1.0  0.1004
  H  H17  1  0.745700  0.412800  0.413400  1.0  0.102
  H  H18  1  0.641000  0.939200  0.124400  1.0  0.081
  H  H19  1  0.562600  0.876500  0.045100  1.0  0.113
  H  H20  1  0.628100  0.827800  0.492000  1.0  0.1254
  H  H21  1  0.664600  0.557700  0.534000  1.0  0.0981
  H  H22  1  0.660400  0.966100  0.377000  1.0  0.3804
  H  H23  1  0.943500  0.859700  0.411100  1.0  0.0991
  H  H24  1  0.754300  0.912800  0.086600  1.0  0.105
  H  H25  1  0.859000  0.439200  0.375600  1.0  0.0792
  H  H26  1  0.937400  0.376500  0.454900  1.0  0.1115
  H  H27  1  0.871900  0.327800  0.008000  1.0  0.1258
  H  H28  1  0.835400  0.057700  0.966000  1.0  0.0978
  H  H29  1  0.839600  0.466100  0.123000  1.0  0.3875
  H  H30  1  0.443500  0.359700  0.411100  1.0  0.0991
  H  H31  1  0.254300  0.412800  0.086600  1.0  0.105
  H  H32  1  0.359000  0.939200  0.375600  1.0  0.0792
  H  H33  1  0.437400  0.876500  0.454900  1.0  0.1115
  H  H34  1  0.371900  0.827800  0.008000  1.0  0.1258
  H  H35  1  0.335400  0.557700  0.966000  1.0  0.0978
  H  H36  1  0.339600  0.966100  0.123000  1.0  0.3875
  H  H37  1  0.943500  0.140300  0.911100  1.0  0.1001
  H  H38  1  0.754300  0.087200  0.586600  1.0  0.1049
  H  H39  1  0.859000  0.560800  0.875600  1.0  0.0795
  H  H40  1  0.937400  0.623500  0.954900  1.0  0.1122
  H  H41  1  0.871900  0.672200  0.508000  1.0  0.1258
  H  H42  1  0.835400  0.942300  0.466000  1.0  0.0978
  H  H43  1  0.839600  0.533900  0.623000  1.0  0.387
  H  H44  1  0.443500  0.640300  0.911100  1.0  0.1
  H  H45  1  0.254300  0.587200  0.586600  1.0  0.1049
  H  H46  1  0.359000  0.060800  0.875600  1.0  0.0795
  H  H47  1  0.437400  0.123500  0.954900  1.0  0.1122
  H  H48  1  0.371900  0.172200  0.508000  1.0  0.1258
  H  H49  1  0.335400  0.442300  0.466000  1.0  0.0978
  H  H50  1  0.339600  0.033900  0.623000  1.0  0.387
  H  H51  1  0.056500  0.140300  0.588900  1.0  0.1016
  H  H52  1  0.245700  0.087200  0.913400  1.0  0.1041
  H  H53  1  0.141000  0.560800  0.624400  1.0  0.0813
  H  H54  1  0.062600  0.623500  0.545100  1.0  0.1125
  H  H55  1  0.128100  0.672200  0.992000  1.0  0.1257
  H  H56  1  0.164600  0.942300  0.034000  1.0  0.0979
  H  H57  1  0.160400  0.533900  0.877000  1.0  0.3821
  H  H58  1  0.556500  0.640300  0.588900  1.0  0.1005
  H  H59  1  0.745700  0.587200  0.913400  1.0  0.1041
  H  H60  1  0.641000  0.060800  0.624400  1.0  0.0813
  H  H61  1  0.562600  0.123500  0.545100  1.0  0.1125
  H  H62  1  0.628100  0.172200  0.992000  1.0  0.1257
  H  H63  1  0.664600  0.442300  0.034000  1.0  0.0979
  H  H64  1  0.660400  0.033900  0.877000  1.0  0.3821
  C  C65  1  0.074030  0.976040  0.096080  1.0  -0.1073
  C  C66  1  0.209450  0.959830  0.478470  1.0  0.2068
  C  C67  1  0.149770  0.188150  0.156790  1.0  0.3052
  C  C68  1  0.141170  0.856320  0.182210  1.0  0.6311
  C  C69  1  0.121490  0.010630  0.144910  1.0  -0.1509
  C  C70  1  0.222690  0.997400  0.429140  1.0  -0.0299
  C  C71  1  0.201750  0.161030  0.403150  1.0  -0.2607
  C  C72  1  0.052090  0.109310  0.057860  1.0  0.2122
  C  C73  1  0.124890  0.321400  0.117650  1.0  -0.1999
  C  C74  1  0.077740  0.284150  0.069900  1.0  -0.1548
  C  C75  1  0.152460  0.246210  0.476400  1.0  -0.2292
  C  C76  1  0.216310  0.200750  0.350330  1.0  0.7442
  C  C77  1  0.167240  0.287420  0.428010  1.0  0.2855
  C  C78  1  0.174040  0.084170  0.501230  1.0  -0.1434
  C  C79  1  0.574030  0.476040  0.096080  1.0  -0.1073
  C  C80  1  0.709450  0.459830  0.478470  1.0  0.2068
  C  C81  1  0.649770  0.688150  0.156790  1.0  0.3052
  C  C82  1  0.641170  0.356320  0.182210  1.0  0.6311
  C  C83  1  0.621490  0.510630  0.144910  1.0  -0.1509
  C  C84  1  0.722690  0.497400  0.429140  1.0  -0.0299
  C  C85  1  0.701750  0.661030  0.403150  1.0  -0.2607
  C  C86  1  0.552090  0.609310  0.057860  1.0  0.2122
  C  C87  1  0.624890  0.821400  0.117650  1.0  -0.1999
  C  C88  1  0.577740  0.784150  0.069900  1.0  -0.1548
  C  C89  1  0.652460  0.746210  0.476400  1.0  -0.2292
  C  C90  1  0.716310  0.700750  0.350330  1.0  0.7442
  C  C91  1  0.667240  0.787420  0.428010  1.0  0.2855
  C  C92  1  0.674040  0.584170  0.501230  1.0  -0.1434
  C  C93  1  0.925970  0.976040  0.403920  1.0  -0.1076
  C  C94  1  0.790550  0.959830  0.021530  1.0  0.207
  C  C95  1  0.850230  0.188150  0.343210  1.0  0.3058
  C  C96  1  0.858830  0.856320  0.317790  1.0  0.6312
  C  C97  1  0.878510  0.010630  0.355090  1.0  -0.1501
  C  C98  1  0.777310  0.997400  0.070860  1.0  -0.0304
  C  C99  1  0.798250  0.161030  0.096850  1.0  -0.26
  C  C100  1  0.947910  0.109310  0.442140  1.0  0.2123
  C  C101  1  0.875110  0.321400  0.382350  1.0  -0.2038
  C  C102  1  0.922260  0.284150  0.430100  1.0  -0.1547
  C  C103  1  0.847540  0.246210  0.023600  1.0  -0.2193
  C  C104  1  0.783690  0.200750  0.149670  1.0  0.7252
  C  C105  1  0.832760  0.287420  0.071990  1.0  0.288
  C  C106  1  0.825960  0.084170  0.998770  1.0  -0.1389
  C  C107  1  0.425970  0.476040  0.403920  1.0  -0.1076
  C  C108  1  0.290550  0.459830  0.021530  1.0  0.207
  C  C109  1  0.350230  0.688150  0.343210  1.0  0.3058
  C  C110  1  0.358830  0.356320  0.317790  1.0  0.631
  C  C111  1  0.378510  0.510630  0.355090  1.0  -0.1501
  C  C112  1  0.277310  0.497400  0.070860  1.0  -0.0304
  C  C113  1  0.298250  0.661030  0.096850  1.0  -0.26
  C  C114  1  0.447910  0.609310  0.442140  1.0  0.2123
  C  C115  1  0.375110  0.821400  0.382350  1.0  -0.2038
  C  C116  1  0.422260  0.784150  0.430100  1.0  -0.1547
  C  C117  1  0.347540  0.746210  0.023600  1.0  -0.2193
  C  C118  1  0.283690  0.700750  0.149670  1.0  0.7252
  C  C119  1  0.332760  0.787420  0.071990  1.0  0.288
  C  C120  1  0.325960  0.584170  0.998770  1.0  -0.1389
  C  C121  1  0.925970  0.023960  0.903920  1.0  -0.1081
  C  C122  1  0.790550  0.040170  0.521530  1.0  0.2087
  C  C123  1  0.850230  0.811850  0.843210  1.0  0.3054
  C  C124  1  0.858830  0.143680  0.817790  1.0  0.6319
  C  C125  1  0.878510  0.989370  0.855090  1.0  -0.15
  C  C126  1  0.777310  0.002600  0.570860  1.0  -0.0322
  C  C127  1  0.798250  0.838970  0.596850  1.0  -0.2603
  C  C128  1  0.947910  0.890690  0.942140  1.0  0.2065
  C  C129  1  0.875110  0.678600  0.882350  1.0  -0.2051
  C  C130  1  0.922260  0.715850  0.930100  1.0  -0.1545
  C  C131  1  0.847540  0.753790  0.523600  1.0  -0.2147
  C  C132  1  0.783690  0.799250  0.649670  1.0  0.7213
  C  C133  1  0.832760  0.712580  0.571990  1.0  0.2949
  C  C134  1  0.825960  0.915830  0.498770  1.0  -0.1391
  C  C135  1  0.425970  0.523960  0.903920  1.0  -0.1081
  C  C136  1  0.290550  0.540170  0.521530  1.0  0.2087
  C  C137  1  0.350230  0.311850  0.843210  1.0  0.3067
  C  C138  1  0.358830  0.643680  0.817790  1.0  0.6311
  C  C139  1  0.378510  0.489370  0.855090  1.0  -0.15
  C  C140  1  0.277310  0.502600  0.570860  1.0  -0.0322
  C  C141  1  0.298250  0.338970  0.596850  1.0  -0.2603
  C  C142  1  0.447910  0.390690  0.942140  1.0  0.2128
  C  C143  1  0.375110  0.178600  0.882350  1.0  -0.2073
  C  C144  1  0.422260  0.215850  0.930100  1.0  -0.1545
  C  C145  1  0.347540  0.253790  0.523600  1.0  -0.2212
  C  C146  1  0.283690  0.299250  0.649670  1.0  0.7213
  C  C147  1  0.332760  0.212580  0.571990  1.0  0.2883
  C  C148  1  0.325960  0.415830  0.498770  1.0  -0.1391
  C  C149  1  0.074030  0.023960  0.596080  1.0  -0.1068
  C  C150  1  0.209450  0.040170  0.978470  1.0  0.2169
  C  C151  1  0.149770  0.811850  0.656790  1.0  0.3048
  C  C152  1  0.141170  0.143680  0.682210  1.0  0.6322
  C  C153  1  0.121490  0.989370  0.644910  1.0  -0.1508
  C  C154  1  0.222690  0.002600  0.929140  1.0  -0.0305
  C  C155  1  0.201750  0.838970  0.903150  1.0  -0.2614
  C  C156  1  0.052090  0.890690  0.557860  1.0  0.2057
  C  C157  1  0.124890  0.678600  0.617650  1.0  -0.2015
  C  C158  1  0.077740  0.715850  0.569900  1.0  -0.1545
  C  C159  1  0.152460  0.753790  0.976400  1.0  -0.2245
  C  C160  1  0.216310  0.799250  0.850330  1.0  0.7279
  C  C161  1  0.167240  0.712580  0.928010  1.0  0.2872
  C  C162  1  0.174040  0.915830  0.001230  1.0  -0.1433
  C  C163  1  0.574030  0.523960  0.596080  1.0  -0.1068
  C  C164  1  0.709450  0.540170  0.978470  1.0  0.2169
  C  C165  1  0.649770  0.311850  0.656790  1.0  0.3048
  C  C166  1  0.641170  0.643680  0.682210  1.0  0.6315
  C  C167  1  0.621490  0.489370  0.644910  1.0  -0.1508
  C  C168  1  0.722690  0.502600  0.929140  1.0  -0.0305
  C  C169  1  0.701750  0.338970  0.903150  1.0  -0.2614
  C  C170  1  0.552090  0.390690  0.557860  1.0  0.2057
  C  C171  1  0.624890  0.178600  0.617650  1.0  -0.2019
  C  C172  1  0.577740  0.215850  0.569900  1.0  -0.1545
  C  C173  1  0.652460  0.253790  0.976400  1.0  -0.2298
  C  C174  1  0.716310  0.299250  0.850330  1.0  0.7279
  C  C175  1  0.667240  0.212580  0.928010  1.0  0.2868
  C  C176  1  0.674040  0.415830  0.001230  1.0  -0.1433
  N  N177  1  0.230720  0.799190  0.508860  1.0  -0.1631
  N  N178  1  0.006920  0.081000  0.005710  1.0  -0.2125
  N  N179  1  0.730720  0.299190  0.508860  1.0  -0.1631
  N  N180  1  0.506920  0.581000  0.005710  1.0  -0.2125
  N  N181  1  0.769280  0.799190  0.991140  1.0  -0.1625
  N  N182  1  0.993080  0.081000  0.494290  1.0  -0.212
  N  N183  1  0.269280  0.299190  0.991140  1.0  -0.1625
  N  N184  1  0.493080  0.581000  0.494290  1.0  -0.212
  N  N185  1  0.769280  0.200810  0.491140  1.0  -0.1621
  N  N186  1  0.993080  0.919000  0.994290  1.0  -0.2122
  N  N187  1  0.269280  0.700810  0.491140  1.0  -0.1621
  N  N188  1  0.493080  0.419000  0.994290  1.0  -0.2122
  N  N189  1  0.230720  0.200810  0.008860  1.0  -0.163
  N  N190  1  0.006920  0.919000  0.505710  1.0  -0.2123
  N  N191  1  0.730720  0.700810  0.008860  1.0  -0.163
  N  N192  1  0.506920  0.419000  0.505710  1.0  -0.2123
  O  O193  1  0.197000  0.230330  0.201920  1.0  -0.7042
  O  O194  1  0.191100  0.869420  0.224450  1.0  -0.7514
  O  O195  1  0.109870  0.708130  0.172970  1.0  -0.6371
  O  O196  1  0.205350  0.360100  0.332460  1.0  -0.6516
  O  O197  1  0.237980  0.076310  0.325810  1.0  -0.7225
  O  O198  1  0.147940  0.451760  0.406000  1.0  -0.5298
  O  O199  1  0.697000  0.730330  0.201920  1.0  -0.7042
  O  O200  1  0.691100  0.369420  0.224450  1.0  -0.7514
  O  O201  1  0.609870  0.208130  0.172970  1.0  -0.6371
  O  O202  1  0.705350  0.860100  0.332460  1.0  -0.6516
  O  O203  1  0.737980  0.576310  0.325810  1.0  -0.7225
  O  O204  1  0.647940  0.951760  0.406000  1.0  -0.5298
  O  O205  1  0.803000  0.230330  0.298080  1.0  -0.7053
  O  O206  1  0.808900  0.869420  0.275550  1.0  -0.7543
  O  O207  1  0.890130  0.708130  0.327030  1.0  -0.64
  O  O208  1  0.794650  0.360100  0.167540  1.0  -0.6524
  O  O209  1  0.762020  0.076310  0.174190  1.0  -0.7204
  O  O210  1  0.852060  0.451760  0.094000  1.0  -0.5293
  O  O211  1  0.303000  0.730330  0.298080  1.0  -0.7053
  O  O212  1  0.308900  0.369420  0.275550  1.0  -0.7543
  O  O213  1  0.390130  0.208130  0.327030  1.0  -0.64
  O  O214  1  0.294650  0.860100  0.167540  1.0  -0.6524
  O  O215  1  0.262020  0.576310  0.174190  1.0  -0.7204
  O  O216  1  0.352060  0.951760  0.094000  1.0  -0.5293
  O  O217  1  0.803000  0.769670  0.798080  1.0  -0.7058
  O  O218  1  0.808900  0.130580  0.775550  1.0  -0.7526
  O  O219  1  0.890130  0.291870  0.827030  1.0  -0.6363
  O  O220  1  0.794650  0.639900  0.667540  1.0  -0.6513
  O  O221  1  0.762020  0.923690  0.674190  1.0  -0.7212
  O  O222  1  0.852060  0.548240  0.594000  1.0  -0.5301
  O  O223  1  0.303000  0.269670  0.798080  1.0  -0.7058
  O  O224  1  0.308900  0.630580  0.775550  1.0  -0.7526
  O  O225  1  0.390130  0.791870  0.827030  1.0  -0.6363
  O  O226  1  0.294650  0.139900  0.667540  1.0  -0.6513
  O  O227  1  0.262020  0.423690  0.674190  1.0  -0.7212
  O  O228  1  0.352060  0.048240  0.594000  1.0  -0.5301
  O  O229  1  0.197000  0.769670  0.701920  1.0  -0.705
  O  O230  1  0.191100  0.130580  0.724450  1.0  -0.7494
  O  O231  1  0.109870  0.291870  0.672970  1.0  -0.6356
  O  O232  1  0.205350  0.639900  0.832460  1.0  -0.6517
  O  O233  1  0.237980  0.923690  0.825810  1.0  -0.7223
  O  O234  1  0.147940  0.548240  0.906000  1.0  -0.5289
  O  O235  1  0.697000  0.269670  0.701920  1.0  -0.705
  O  O236  1  0.691100  0.630580  0.724450  1.0  -0.7494
  O  O237  1  0.609870  0.791870  0.672970  1.0  -0.6362
  O  O238  1  0.705350  0.139900  0.832460  1.0  -0.6517
  O  O239  1  0.737980  0.423690  0.825810  1.0  -0.7223
  O  O240  1  0.647940  0.048240  0.906000  1.0  -0.5289
