# generated using pymatgen
data_Nd2H12C28N4O13
_symmetry_space_group_name_H-M   'P 1'
_cell_length_a   15.52800000
_cell_length_b   15.99900000
_cell_length_c   13.51900000
_cell_angle_alpha   90.00000000
_cell_angle_beta   112.64300000
_cell_angle_gamma   90.00000000
_symmetry_Int_Tables_number   1
_chemical_formula_structural   Nd2H12C28N4O13
_chemical_formula_sum   'Nd4 H24 C56 N8 O26'
_cell_volume   3099.68608776
_cell_formula_units_Z   2
loop_
 _symmetry_equiv_pos_site_id
 _symmetry_equiv_pos_as_xyz
  1  'x, y, z'
loop_
 _atom_site_type_symbol
 _atom_site_label
 _atom_site_symmetry_multiplicity
 _atom_site_fract_x
 _atom_site_fract_y
 _atom_site_fract_z
 _atom_site_occupancy
 _atom_site_charge
  Nd  Nd1  1  0.426800  0.041720  0.592290  1.0  2.303
  Nd  Nd2  1  0.573200  0.041720  0.907710  1.0  2.3035
  Nd  Nd3  1  0.573200  0.958280  0.407710  1.0  2.3043
  Nd  Nd4  1  0.426800  0.958280  0.092290  1.0  2.3042
  H  H5  1  0.114800  0.952700  0.488900  1.0  0.1318
  H  H6  1  0.217800  0.977000  0.858600  1.0  0.1413
  H  H7  1  0.010400  0.936600  0.572600  1.0  0.1244
  H  H8  1  0.517000  0.691500  0.474400  1.0  0.152
  H  H9  1  0.357900  0.631100  0.700400  1.0  0.1447
  H  H10  1  0.402900  0.525000  0.613500  1.0  0.1283
  H  H11  1  0.885200  0.952700  0.011100  1.0  0.1319
  H  H12  1  0.782200  0.977000  0.641400  1.0  0.1413
  H  H13  1  0.989600  0.936600  0.927400  1.0  0.1257
  H  H14  1  0.483000  0.691500  0.025600  1.0  0.153
  H  H15  1  0.642100  0.631100  0.799600  1.0  0.1469
  H  H16  1  0.597100  0.525000  0.886500  1.0  0.1261
  H  H17  1  0.885200  0.047300  0.511100  1.0  0.1323
  H  H18  1  0.782200  0.023000  0.141400  1.0  0.1413
  H  H19  1  0.989600  0.063400  0.427400  1.0  0.1243
  H  H20  1  0.483000  0.308500  0.525600  1.0  0.1529
  H  H21  1  0.642100  0.368900  0.299600  1.0  0.1442
  H  H22  1  0.597100  0.475000  0.386500  1.0  0.1277
  H  H23  1  0.114800  0.047300  0.988900  1.0  0.1317
  H  H24  1  0.217800  0.023000  0.358600  1.0  0.1413
  H  H25  1  0.010400  0.063400  0.072600  1.0  0.1261
  H  H26  1  0.517000  0.308500  0.974400  1.0  0.1518
  H  H27  1  0.357900  0.368900  0.200400  1.0  0.1473
  H  H28  1  0.402900  0.475000  0.113500  1.0  0.1257
  C  C29  1  0.357500  0.991200  0.809400  1.0  0.6695
  C  C30  1  0.228800  0.974400  0.623600  1.0  0.2917
  C  C31  1  0.466000  0.833600  0.543400  1.0  0.7301
  C  C32  1  0.259700  0.981700  0.734400  1.0  -0.1717
  C  C33  1  0.135400  0.957500  0.563000  1.0  -0.1677
  C  C34  1  0.449100  0.744700  0.560600  1.0  -0.1254
  C  C35  1  0.197100  0.972100  0.784500  1.0  -0.0505
  C  C36  1  0.072900  0.947900  0.613100  1.0  -0.1023
  C  C37  1  0.482400  0.680000  0.515800  1.0  -0.0127
  C  C38  1  0.403100  0.728700  0.634000  1.0  0.3101
  C  C39  1  0.103800  0.955200  0.723900  1.0  0.1349
  C  C40  1  0.463000  0.597600  0.534000  1.0  0.1783
  C  C41  1  0.387000  0.644100  0.654000  1.0  -0.1394
  C  C42  1  0.416000  0.580300  0.602000  1.0  -0.0292
  C  C43  1  0.642500  0.991200  0.690600  1.0  0.6694
  C  C44  1  0.771200  0.974400  0.876400  1.0  0.2916
  C  C45  1  0.534000  0.833600  0.956600  1.0  0.7302
  C  C46  1  0.740300  0.981700  0.765600  1.0  -0.1717
  C  C47  1  0.864600  0.957500  0.937000  1.0  -0.1668
  C  C48  1  0.550900  0.744700  0.939400  1.0  -0.1251
  C  C49  1  0.802900  0.972100  0.715500  1.0  -0.0515
  C  C50  1  0.927100  0.947900  0.886900  1.0  -0.103
  C  C51  1  0.517600  0.680000  0.984200  1.0  -0.0106
  C  C52  1  0.596900  0.728700  0.866000  1.0  0.3093
  C  C53  1  0.896200  0.955200  0.776100  1.0  0.1356
  C  C54  1  0.537000  0.597600  0.966000  1.0  0.1778
  C  C55  1  0.613000  0.644100  0.846000  1.0  -0.1379
  C  C56  1  0.584000  0.580300  0.898000  1.0  -0.0302
  C  C57  1  0.642500  0.008800  0.190600  1.0  0.6706
  C  C58  1  0.771200  0.025600  0.376400  1.0  0.2917
  C  C59  1  0.534000  0.166400  0.456600  1.0  0.7295
  C  C60  1  0.740300  0.018300  0.265600  1.0  -0.1718
  C  C61  1  0.864600  0.042500  0.437000  1.0  -0.1665
  C  C62  1  0.550900  0.255300  0.439400  1.0  -0.1279
  C  C63  1  0.802900  0.027900  0.215500  1.0  -0.0519
  C  C64  1  0.927100  0.052100  0.386900  1.0  -0.1038
  C  C65  1  0.517600  0.320000  0.484200  1.0  -0.0101
  C  C66  1  0.596900  0.271300  0.366000  1.0  0.3097
  C  C67  1  0.896200  0.044800  0.276100  1.0  0.1367
  C  C68  1  0.537000  0.402400  0.466000  1.0  0.1771
  C  C69  1  0.613000  0.355900  0.346000  1.0  -0.137
  C  C70  1  0.584000  0.419700  0.398000  1.0  -0.0293
  C  C71  1  0.357500  0.008800  0.309400  1.0  0.6709
  C  C72  1  0.228800  0.025600  0.123600  1.0  0.2917
  C  C73  1  0.466000  0.166400  0.043400  1.0  0.7301
  C  C74  1  0.259700  0.018300  0.234400  1.0  -0.1713
  C  C75  1  0.135400  0.042500  0.063000  1.0  -0.1673
  C  C76  1  0.449100  0.255300  0.060600  1.0  -0.1287
  C  C77  1  0.197100  0.027900  0.284500  1.0  -0.0507
  C  C78  1  0.072900  0.052100  0.113100  1.0  -0.1031
  C  C79  1  0.482400  0.320000  0.015800  1.0  -0.0128
  C  C80  1  0.403100  0.271300  0.134000  1.0  0.3095
  C  C81  1  0.103800  0.044800  0.223900  1.0  0.1351
  C  C82  1  0.463000  0.402400  0.034000  1.0  0.1788
  C  C83  1  0.387000  0.355900  0.154000  1.0  -0.141
  C  C84  1  0.416000  0.419700  0.102000  1.0  -0.0305
  N  N85  1  0.042800  0.953400  0.782100  1.0  -0.2527
  N  N86  1  0.504000  0.536700  0.487000  1.0  -0.1768
  N  N87  1  0.957200  0.953400  0.717900  1.0  -0.2557
  N  N88  1  0.496000  0.536700  0.013000  1.0  -0.1762
  N  N89  1  0.957200  0.046600  0.217900  1.0  -0.2548
  N  N90  1  0.496000  0.463300  0.513000  1.0  -0.1761
  N  N91  1  0.042800  0.046600  0.282100  1.0  -0.2528
  N  N92  1  0.504000  0.463300  0.987000  1.0  -0.1767
  O  O93  1  0.414100  0.010500  0.764300  1.0  -0.725
  O  O94  1  0.283900  0.990500  0.570700  1.0  -0.6589
  O  O95  1  0.443500  0.887600  0.592200  1.0  -0.632
  O  O96  1  0.389100  0.010400  0.407600  1.0  -0.6774
  O  O97  1  0.499600  0.153400  0.527900  1.0  -0.7248
  O  O98  1  0.372500  0.784900  0.679900  1.0  -0.5113
  O  O99  1  0.585900  0.010500  0.735700  1.0  -0.7244
  O  O100  1  0.716100  0.990500  0.929300  1.0  -0.6598
  O  O101  1  0.556500  0.887600  0.907800  1.0  -0.6325
  O  O102  1  0.610900  0.010400  0.092400  1.0  -0.6775
  O  O103  1  0.500400  0.153400  0.972100  1.0  -0.7259
  O  O104  1  0.627500  0.784900  0.820100  1.0  -0.5118
  O  O105  1  0.585900  0.989500  0.235700  1.0  -0.725
  O  O106  1  0.716100  0.009500  0.429300  1.0  -0.6598
  O  O107  1  0.556500  0.112400  0.407800  1.0  -0.6323
  O  O108  1  0.610900  0.989600  0.592400  1.0  -0.6776
  O  O109  1  0.500400  0.846600  0.472100  1.0  -0.7249
  O  O110  1  0.627500  0.215100  0.320100  1.0  -0.5107
  O  O111  1  0.414100  0.989500  0.264300  1.0  -0.726
  O  O112  1  0.283900  0.009500  0.070700  1.0  -0.6594
  O  O113  1  0.443500  0.112400  0.092200  1.0  -0.632
  O  O114  1  0.389100  0.989600  0.907600  1.0  -0.6774
  O  O115  1  0.499600  0.846600  0.027900  1.0  -0.7244
  O  O116  1  0.372500  0.215100  0.179900  1.0  -0.5088
  O  O117  1  0.500000  0.153200  0.750000  1.0  -0.5644
  O  O118  1  0.500000  0.846800  0.250000  1.0  -0.5635
