# generated using pymatgen
data_GdH7C14(NO3)2
_symmetry_space_group_name_H-M   'P 1'
_cell_length_a   8.81810000
_cell_length_b   8.78790000
_cell_length_c   27.53870000
_cell_angle_alpha   90.00000000
_cell_angle_beta   102.18300000
_cell_angle_gamma   90.00000000
_symmetry_Int_Tables_number   1
_chemical_formula_structural   GdH7C14(NO3)2
_chemical_formula_sum   'Gd4 H28 C56 N8 O24'
_cell_volume   2085.98315922
_cell_formula_units_Z   4
loop_
 _symmetry_equiv_pos_site_id
 _symmetry_equiv_pos_as_xyz
  1  'x, y, z'
loop_
 _atom_site_type_symbol
 _atom_site_label
 _atom_site_symmetry_multiplicity
 _atom_site_fract_x
 _atom_site_fract_y
 _atom_site_fract_z
 _atom_site_occupancy
 _atom_site_charge
  Gd  Gd1  1  0.503850  0.438280  0.766810  1.0  2.1314
  Gd  Gd2  1  0.496150  0.938280  0.733190  1.0  2.1308
  Gd  Gd3  1  0.496150  0.561710  0.233190  1.0  2.1305
  Gd  Gd4  1  0.503850  0.061720  0.266810  1.0  2.1312
  H  H5  1  0.488100  0.073200  0.587500  1.0  0.1091
  H  H6  1  0.647300  0.315300  0.485600  1.0  0.1013
  H  H7  1  0.725800  0.504700  0.542500  1.0  0.1192
  H  H8  1  0.143600  0.211900  0.638400  1.0  0.1128
  H  H9  1  0.040000  0.273800  0.558000  1.0  0.1231
  H  H10  1  0.201000  0.698400  0.583000  1.0  0.1133
  H  H11  1  0.670000  0.500000  0.657900  1.0  0.331
  H  H12  1  0.511900  0.573200  0.912500  1.0  0.1091
  H  H13  1  0.352700  0.815300  0.014400  1.0  0.1011
  H  H14  1  0.274200  0.004700  0.957500  1.0  0.1192
  H  H15  1  0.856400  0.711900  0.861600  1.0  0.1125
  H  H16  1  0.960000  0.773800  0.942000  1.0  0.1229
  H  H17  1  0.799000  0.198400  0.917000  1.0  0.1128
  H  H18  1  0.330000  0.000000  0.842100  1.0  0.3284
  H  H19  1  0.511900  0.926800  0.412500  1.0  0.1092
  H  H20  1  0.352700  0.684700  0.514400  1.0  0.1008
  H  H21  1  0.274200  0.495300  0.457500  1.0  0.1188
  H  H22  1  0.856400  0.788100  0.361600  1.0  0.1123
  H  H23  1  0.960000  0.726200  0.442000  1.0  0.1231
  H  H24  1  0.799000  0.301600  0.417000  1.0  0.1131
  H  H25  1  0.330000  0.500000  0.342100  1.0  0.3285
  H  H26  1  0.488100  0.426800  0.087500  1.0  0.1092
  H  H27  1  0.647300  0.184700  0.985600  1.0  0.1012
  H  H28  1  0.725800  0.995300  0.042500  1.0  0.1189
  H  H29  1  0.143600  0.288100  0.138400  1.0  0.1125
  H  H30  1  0.040000  0.226200  0.058000  1.0  0.1234
  H  H31  1  0.201000  0.801600  0.083000  1.0  0.1132
  H  H32  1  0.670000  0.000000  0.157900  1.0  0.3303
  C  C33  1  0.559900  0.252900  0.664860  1.0  0.7226
  C  C34  1  0.583800  0.272900  0.613490  1.0  -0.2503
  C  C35  1  0.537200  0.159500  0.578710  1.0  -0.0184
  C  C36  1  0.563000  0.173200  0.530880  1.0  0.1461
  C  C37  1  0.632200  0.304300  0.517860  1.0  -0.168
  C  C38  1  0.678700  0.417700  0.551770  1.0  -0.2008
  C  C39  1  0.655800  0.403500  0.599680  1.0  0.3049
  C  C40  1  0.342500  0.687300  0.675070  1.0  0.6686
  C  C41  1  0.257100  0.564900  0.643930  1.0  -0.1876
  C  C42  1  0.236400  0.416700  0.661780  1.0  0.3461
  C  C43  1  0.154900  0.310800  0.627690  1.0  -0.2241
  C  C44  1  0.091900  0.347400  0.579550  1.0  -0.1056
  C  C45  1  0.105400  0.496100  0.562430  1.0  0.2352
  C  C46  1  0.189100  0.600600  0.594500  1.0  -0.0818
  C  C47  1  0.440100  0.752900  0.835140  1.0  0.721
  C  C48  1  0.416200  0.772900  0.886510  1.0  -0.2501
  C  C49  1  0.462800  0.659500  0.921290  1.0  -0.0175
  C  C50  1  0.437000  0.673200  0.969120  1.0  0.1462
  C  C51  1  0.367800  0.804300  0.982140  1.0  -0.1688
  C  C52  1  0.321300  0.917700  0.948230  1.0  -0.2007
  C  C53  1  0.344200  0.903500  0.900320  1.0  0.3042
  C  C54  1  0.657500  0.187300  0.824930  1.0  0.6683
  C  C55  1  0.742900  0.064900  0.856070  1.0  -0.1855
  C  C56  1  0.763600  0.916700  0.838220  1.0  0.3482
  C  C57  1  0.845100  0.810800  0.872310  1.0  -0.2259
  C  C58  1  0.908100  0.847400  0.920450  1.0  -0.1067
  C  C59  1  0.894600  0.996100  0.937570  1.0  0.2324
  C  C60  1  0.810900  0.100600  0.905500  1.0  -0.0824
  C  C61  1  0.440100  0.747100  0.335140  1.0  0.7218
  C  C62  1  0.416200  0.727100  0.386510  1.0  -0.2499
  C  C63  1  0.462800  0.840500  0.421290  1.0  -0.0161
  C  C64  1  0.437000  0.826800  0.469120  1.0  0.1441
  C  C65  1  0.367800  0.695700  0.482140  1.0  -0.1684
  C  C66  1  0.321300  0.582300  0.448230  1.0  -0.2011
  C  C67  1  0.344200  0.596500  0.400320  1.0  0.3044
  C  C68  1  0.657500  0.312700  0.324930  1.0  0.668
  C  C69  1  0.742900  0.435100  0.356070  1.0  -0.186
  C  C70  1  0.763600  0.583300  0.338220  1.0  0.3475
  C  C71  1  0.845100  0.689200  0.372310  1.0  -0.2259
  C  C72  1  0.908100  0.652600  0.420450  1.0  -0.107
  C  C73  1  0.894600  0.503900  0.437570  1.0  0.2327
  C  C74  1  0.810900  0.399400  0.405500  1.0  -0.0827
  C  C75  1  0.559900  0.247100  0.164860  1.0  0.7211
  C  C76  1  0.583800  0.227100  0.113490  1.0  -0.2502
  C  C77  1  0.537200  0.340500  0.078710  1.0  -0.0175
  C  C78  1  0.563000  0.326800  0.030880  1.0  0.1456
  C  C79  1  0.632200  0.195700  0.017860  1.0  -0.1679
  C  C80  1  0.678700  0.082300  0.051770  1.0  -0.202
  C  C81  1  0.655800  0.096500  0.099680  1.0  0.3049
  C  C82  1  0.342500  0.812700  0.175070  1.0  0.6698
  C  C83  1  0.257100  0.935100  0.143930  1.0  -0.1878
  C  C84  1  0.236400  0.083300  0.161780  1.0  0.3464
  C  C85  1  0.154900  0.189200  0.127690  1.0  -0.2251
  C  C86  1  0.091900  0.152600  0.079550  1.0  -0.1068
  C  C87  1  0.105400  0.003900  0.062430  1.0  0.2352
  C  C88  1  0.189100  0.899400  0.094500  1.0  -0.0821
  N  N89  1  0.524200  0.061200  0.493150  1.0  -0.1562
  N  N90  1  0.037800  0.549100  0.514220  1.0  -0.2045
  N  N91  1  0.475800  0.561200  0.006850  1.0  -0.1559
  N  N92  1  0.962200  0.049100  0.985780  1.0  -0.2037
  N  N93  1  0.475800  0.938800  0.506850  1.0  -0.1565
  N  N94  1  0.962200  0.450900  0.485780  1.0  -0.2049
  N  N95  1  0.524200  0.438800  0.993150  1.0  -0.1574
  N  N96  1  0.037800  0.950900  0.014220  1.0  -0.2048
  O  O97  1  0.499400  0.132400  0.675570  1.0  -0.7293
  O  O98  1  0.335100  0.821300  0.659270  1.0  -0.6679
  O  O99  1  0.601300  0.362000  0.695620  1.0  -0.6584
  O  O100  1  0.283700  0.376700  0.708750  1.0  -0.6517
  O  O101  1  0.426000  0.659400  0.717980  1.0  -0.7659
  O  O102  1  0.705000  0.517000  0.632100  1.0  -0.4917
  O  O103  1  0.500600  0.632400  0.824430  1.0  -0.7304
  O  O104  1  0.664900  0.321300  0.840730  1.0  -0.6667
  O  O105  1  0.398700  0.862000  0.804380  1.0  -0.6587
  O  O106  1  0.716300  0.876700  0.791250  1.0  -0.6455
  O  O107  1  0.574000  0.159400  0.782020  1.0  -0.7653
  O  O108  1  0.295000  0.017000  0.867900  1.0  -0.4925
  O  O109  1  0.500600  0.867600  0.324430  1.0  -0.7295
  O  O110  1  0.664900  0.178700  0.340730  1.0  -0.666
  O  O111  1  0.398700  0.638000  0.304380  1.0  -0.6595
  O  O112  1  0.716300  0.623300  0.291250  1.0  -0.6473
  O  O113  1  0.574000  0.340600  0.282020  1.0  -0.7653
  O  O114  1  0.295000  0.483000  0.367900  1.0  -0.4922
  O  O115  1  0.499400  0.367600  0.175570  1.0  -0.7283
  O  O116  1  0.335100  0.678700  0.159270  1.0  -0.666
  O  O117  1  0.601300  0.138000  0.195620  1.0  -0.6583
  O  O118  1  0.283700  0.123300  0.208750  1.0  -0.6526
  O  O119  1  0.426000  0.840600  0.217980  1.0  -0.765
  O  O120  1  0.705000  0.983000  0.132100  1.0  -0.4907
