# generated using pymatgen
data_Eu2H20C31N5O13
_symmetry_space_group_name_H-M   'P 1'
_cell_length_a   15.51600000
_cell_length_b   15.89900000
_cell_length_c   13.27000000
_cell_angle_alpha   90.00000000
_cell_angle_beta   112.46900000
_cell_angle_gamma   90.00000000
_symmetry_Int_Tables_number   1
_chemical_formula_structural   Eu2H20C31N5O13
_chemical_formula_sum   'Eu4 H40 C62 N10 O26'
_cell_volume   3025.05381330
_cell_formula_units_Z   2
loop_
 _symmetry_equiv_pos_site_id
 _symmetry_equiv_pos_as_xyz
  1  'x, y, z'
loop_
 _atom_site_type_symbol
 _atom_site_label
 _atom_site_symmetry_multiplicity
 _atom_site_fract_x
 _atom_site_fract_y
 _atom_site_fract_z
 _atom_site_occupancy
 _atom_site_charge
  Eu  Eu1  1  0.572640  0.542620  0.406340  1.0  2.1743
  Eu  Eu2  1  0.427360  0.542620  0.093660  1.0  2.1733
  Eu  Eu3  1  0.427360  0.457380  0.593660  1.0  2.173
  Eu  Eu4  1  0.572640  0.457380  0.906340  1.0  2.1743
  H  H5  1  0.884300  0.451800  0.513200  1.0  0.1272
  H  H6  1  0.986800  0.434900  0.431100  1.0  0.1265
  H  H7  1  0.782100  0.471500  0.139600  1.0  0.1331
  H  H8  1  0.482800  0.193500  0.522600  1.0  0.1253
  H  H9  1  0.607200  0.845300  0.221400  1.0  0.1232
  H  H10  1  0.634700  0.799800  0.334300  1.0  0.1198
  H  H11  1  0.592200  0.890600  0.318400  1.0  0.1103
  H  H12  1  0.647600  0.131500  0.309100  1.0  0.1314
  H  H13  1  0.596100  0.026600  0.382700  1.0  0.1269
  H  H14  1  0.557600  0.719900  0.259300  1.0  0.1778
  H  H15  1  0.115700  0.451800  0.986800  1.0  0.127
  H  H16  1  0.013200  0.434900  0.068900  1.0  0.1274
  H  H17  1  0.217900  0.471500  0.360400  1.0  0.1336
  H  H18  1  0.517200  0.193500  0.977400  1.0  0.1251
  H  H19  1  0.392800  0.845300  0.278600  1.0  0.1232
  H  H20  1  0.365300  0.799800  0.165700  1.0  0.1175
  H  H21  1  0.407800  0.890600  0.181600  1.0  0.1108
  H  H22  1  0.352400  0.131500  0.190900  1.0  0.1321
  H  H23  1  0.403900  0.026600  0.117300  1.0  0.1263
  H  H24  1  0.442400  0.719900  0.240700  1.0  0.1745
  H  H25  1  0.115700  0.548200  0.486800  1.0  0.1269
  H  H26  1  0.013200  0.565100  0.568900  1.0  0.128
  H  H27  1  0.217900  0.528500  0.860400  1.0  0.1335
  H  H28  1  0.517200  0.806500  0.477400  1.0  0.1252
  H  H29  1  0.392800  0.154700  0.778600  1.0  0.1233
  H  H30  1  0.365300  0.200200  0.665700  1.0  0.1168
  H  H31  1  0.407800  0.109400  0.681600  1.0  0.1117
  H  H32  1  0.352400  0.868500  0.690900  1.0  0.1319
  H  H33  1  0.403900  0.973400  0.617300  1.0  0.1266
  H  H34  1  0.442400  0.280100  0.740700  1.0  0.1783
  H  H35  1  0.884300  0.548200  0.013200  1.0  0.1271
  H  H36  1  0.986800  0.565100  0.931100  1.0  0.127
  H  H37  1  0.782100  0.528500  0.639600  1.0  0.1332
  H  H38  1  0.482800  0.806500  0.022600  1.0  0.1253
  H  H39  1  0.607200  0.154700  0.721400  1.0  0.1229
  H  H40  1  0.634700  0.200200  0.834300  1.0  0.1188
  H  H41  1  0.592200  0.109400  0.818400  1.0  0.1093
  H  H42  1  0.647600  0.868500  0.809100  1.0  0.1313
  H  H43  1  0.596100  0.973400  0.882700  1.0  0.127
  H  H44  1  0.557600  0.280100  0.759300  1.0  0.1791
  C  C45  1  0.767500  0.475500  0.378700  1.0  0.3038
  C  C46  1  0.532800  0.336400  0.458500  1.0  0.7404
  C  C47  1  0.640800  0.493900  0.192100  1.0  0.7164
  C  C48  1  0.863100  0.457300  0.437800  1.0  -0.1813
  C  C49  1  0.738200  0.478900  0.262400  1.0  -0.1293
  C  C50  1  0.548500  0.246200  0.434100  1.0  -0.1588
  C  C51  1  0.924900  0.447500  0.389000  1.0  -0.1114
  C  C52  1  0.802500  0.469100  0.215200  1.0  -0.0586
  C  C53  1  0.515900  0.181300  0.478900  1.0  -0.0396
  C  C54  1  0.595700  0.226700  0.364600  1.0  0.2683
  C  C55  1  0.591000  0.837000  0.284000  1.0  -0.1827
  C  C56  1  0.896500  0.456000  0.275600  1.0  0.2174
  C  C57  1  0.531900  0.098000  0.459700  1.0  0.1719
  C  C58  1  0.613100  0.144300  0.351000  1.0  -0.1726
  C  C59  1  0.583000  0.081800  0.395000  1.0  -0.0605
  C  C60  1  0.232500  0.475500  0.121300  1.0  0.3073
  C  C61  1  0.467200  0.336400  0.041500  1.0  0.7396
  C  C62  1  0.359200  0.493900  0.307900  1.0  0.7167
  C  C63  1  0.136900  0.457300  0.062200  1.0  -0.1816
  C  C64  1  0.261800  0.478900  0.237600  1.0  -0.1307
  C  C65  1  0.451500  0.246200  0.065900  1.0  -0.1581
  C  C66  1  0.075100  0.447500  0.111000  1.0  -0.1099
  C  C67  1  0.197500  0.469100  0.284800  1.0  -0.0587
  C  C68  1  0.484100  0.181300  0.021100  1.0  -0.0404
  C  C69  1  0.404300  0.226700  0.135400  1.0  0.2708
  C  C70  1  0.409000  0.837000  0.216000  1.0  -0.1833
  C  C71  1  0.103500  0.456000  0.224400  1.0  0.2151
  C  C72  1  0.468100  0.098000  0.040300  1.0  0.1696
  C  C73  1  0.386900  0.144300  0.149000  1.0  -0.1746
  C  C74  1  0.417000  0.081800  0.105000  1.0  -0.0596
  C  C75  1  0.232500  0.524500  0.621300  1.0  0.307
  C  C76  1  0.467200  0.663600  0.541500  1.0  0.74
  C  C77  1  0.359200  0.506100  0.807900  1.0  0.7166
  C  C78  1  0.136900  0.542700  0.562200  1.0  -0.1809
  C  C79  1  0.261800  0.521100  0.737600  1.0  -0.1307
  C  C80  1  0.451500  0.753800  0.565900  1.0  -0.158
  C  C81  1  0.075100  0.552500  0.611000  1.0  -0.1106
  C  C82  1  0.197500  0.530900  0.784800  1.0  -0.0587
  C  C83  1  0.484100  0.818700  0.521100  1.0  -0.0401
  C  C84  1  0.404300  0.773300  0.635400  1.0  0.2716
  C  C85  1  0.409000  0.163000  0.716000  1.0  -0.1821
  C  C86  1  0.103500  0.544000  0.724400  1.0  0.2145
  C  C87  1  0.468100  0.902000  0.540300  1.0  0.1705
  C  C88  1  0.386900  0.855700  0.649000  1.0  -0.1745
  C  C89  1  0.417000  0.918200  0.605000  1.0  -0.0611
  C  C90  1  0.767500  0.524500  0.878700  1.0  0.3039
  C  C91  1  0.532800  0.663600  0.958500  1.0  0.7409
  C  C92  1  0.640800  0.506100  0.692100  1.0  0.7165
  C  C93  1  0.863100  0.542700  0.937800  1.0  -0.1805
  C  C94  1  0.738200  0.521100  0.762400  1.0  -0.1294
  C  C95  1  0.548500  0.753800  0.934100  1.0  -0.1579
  C  C96  1  0.924900  0.552500  0.889000  1.0  -0.1113
  C  C97  1  0.802500  0.530900  0.715200  1.0  -0.0586
  C  C98  1  0.515900  0.818700  0.978900  1.0  -0.0394
  C  C99  1  0.595700  0.773300  0.864600  1.0  0.2686
  C  C100  1  0.591000  0.163000  0.784000  1.0  -0.1817
  C  C101  1  0.896500  0.544000  0.775600  1.0  0.2177
  C  C102  1  0.531900  0.902000  0.959700  1.0  0.1712
  C  C103  1  0.613100  0.855700  0.851000  1.0  -0.1723
  C  C104  1  0.583000  0.918200  0.895000  1.0  -0.0612
  C  C105  1  0.500000  0.717000  0.250000  1.0  0.1245
  C  C106  1  0.500000  0.283000  0.750000  1.0  0.1258
  N  N107  1  0.957200  0.454500  0.219500  1.0  -0.2168
  N  N108  1  0.492000  0.037600  0.509500  1.0  -0.2218
  N  N109  1  0.042800  0.454500  0.280500  1.0  -0.2136
  N  N110  1  0.508000  0.037600  0.990500  1.0  -0.2202
  N  N111  1  0.042800  0.545500  0.780500  1.0  -0.2143
  N  N112  1  0.508000  0.962400  0.490500  1.0  -0.2204
  N  N113  1  0.957200  0.545500  0.719500  1.0  -0.2175
  N  N114  1  0.492000  0.962400  0.009500  1.0  -0.2219
  N  N115  1  0.500000  0.799000  0.250000  1.0  0.0767
  N  N116  1  0.500000  0.201000  0.750000  1.0  0.0774
  O  O117  1  0.714500  0.487100  0.430600  1.0  -0.7027
  O  O118  1  0.552600  0.393000  0.404300  1.0  -0.7139
  O  O119  1  0.580800  0.513600  0.233400  1.0  -0.7328
  O  O120  1  0.613200  0.488800  0.090400  1.0  -0.7692
  O  O121  1  0.500100  0.349100  0.529900  1.0  -0.7121
  O  O122  1  0.629900  0.286500  0.320100  1.0  -0.5002
  O  O123  1  0.285500  0.487100  0.069400  1.0  -0.7031
  O  O124  1  0.447400  0.393000  0.095700  1.0  -0.7147
  O  O125  1  0.419200  0.513600  0.266600  1.0  -0.734
  O  O126  1  0.386800  0.488800  0.409600  1.0  -0.771
  O  O127  1  0.499900  0.349100  0.970100  1.0  -0.7113
  O  O128  1  0.370100  0.286500  0.179900  1.0  -0.5024
  O  O129  1  0.285500  0.512900  0.569400  1.0  -0.703
  O  O130  1  0.447400  0.607000  0.595700  1.0  -0.7142
  O  O131  1  0.419200  0.486400  0.766600  1.0  -0.7344
  O  O132  1  0.386800  0.511200  0.909600  1.0  -0.7709
  O  O133  1  0.499900  0.650900  0.470100  1.0  -0.7116
  O  O134  1  0.370100  0.713500  0.679900  1.0  -0.501
  O  O135  1  0.714500  0.512900  0.930600  1.0  -0.7025
  O  O136  1  0.552600  0.607000  0.904300  1.0  -0.7141
  O  O137  1  0.580800  0.486400  0.733400  1.0  -0.7329
  O  O138  1  0.613200  0.511200  0.590400  1.0  -0.7688
  O  O139  1  0.500100  0.650900  0.029900  1.0  -0.7124
  O  O140  1  0.629900  0.713500  0.820100  1.0  -0.4997
  O  O141  1  0.500000  0.653300  0.250000  1.0  -0.6602
  O  O142  1  0.500000  0.346700  0.750000  1.0  -0.6577
