# generated using pymatgen
data_DyH7C14(NO3)2
_symmetry_space_group_name_H-M   'P 1'
_cell_length_a   8.75250000
_cell_length_b   8.74920000
_cell_length_c   27.49800000
_cell_angle_alpha   90.00000000
_cell_angle_beta   102.07400000
_cell_angle_gamma   90.00000000
_symmetry_Int_Tables_number   1
_chemical_formula_structural   DyH7C14(NO3)2
_chemical_formula_sum   'Dy4 H28 C56 N8 O24'
_cell_volume   2059.14230630
_cell_formula_units_Z   4
loop_
 _symmetry_equiv_pos_site_id
 _symmetry_equiv_pos_as_xyz
  1  'x, y, z'
loop_
 _atom_site_type_symbol
 _atom_site_label
 _atom_site_symmetry_multiplicity
 _atom_site_fract_x
 _atom_site_fract_y
 _atom_site_fract_z
 _atom_site_occupancy
 _atom_site_charge
  Dy  Dy1  1  0.496680  0.063720  0.233490  1.0  2.2585
  Dy  Dy2  1  0.503320  0.563720  0.266510  1.0  2.2587
  Dy  Dy3  1  0.503320  0.936280  0.766510  1.0  2.2588
  Dy  Dy4  1  0.496680  0.436280  0.733490  1.0  2.2586
  H  H5  1  0.855400  0.290800  0.361700  1.0  0.1036
  H  H6  1  0.797500  0.801300  0.416600  1.0  0.1079
  H  H7  1  0.513200  0.427600  0.412500  1.0  0.1029
  H  H8  1  0.961200  0.227800  0.441700  1.0  0.1163
  H  H9  1  0.276500  0.992800  0.456800  1.0  0.1057
  H  H10  1  0.324000  0.000000  0.339900  1.0  0.3346
  H  H11  1  0.353500  0.181700  0.513900  1.0  0.0942
  H  H12  1  0.144600  0.790800  0.138300  1.0  0.1041
  H  H13  1  0.202500  0.301300  0.083400  1.0  0.1078
  H  H14  1  0.486800  0.927600  0.087500  1.0  0.1029
  H  H15  1  0.038800  0.727800  0.058300  1.0  0.1168
  H  H16  1  0.723500  0.492800  0.043200  1.0  0.1058
  H  H17  1  0.676000  0.500000  0.160100  1.0  0.335
  H  H18  1  0.646500  0.681700  0.986100  1.0  0.0942
  H  H19  1  0.144600  0.709200  0.638300  1.0  0.1042
  H  H20  1  0.202500  0.198700  0.583400  1.0  0.1077
  H  H21  1  0.486800  0.572400  0.587500  1.0  0.1028
  H  H22  1  0.038800  0.772200  0.558300  1.0  0.1166
  H  H23  1  0.723500  0.007200  0.543200  1.0  0.1056
  H  H24  1  0.676000  0.000000  0.660100  1.0  0.3355
  H  H25  1  0.646500  0.818300  0.486100  1.0  0.0943
  H  H26  1  0.855400  0.209200  0.861700  1.0  0.1037
  H  H27  1  0.797500  0.698700  0.916600  1.0  0.1075
  H  H28  1  0.513200  0.072400  0.912500  1.0  0.1027
  H  H29  1  0.961200  0.272200  0.941700  1.0  0.1163
  H  H30  1  0.276500  0.507200  0.956800  1.0  0.1055
  H  H31  1  0.324000  0.500000  0.839900  1.0  0.3344
  H  H32  1  0.353500  0.318300  0.013900  1.0  0.0945
  C  C33  1  0.655600  0.814100  0.324570  1.0  0.6501
  C  C34  1  0.439800  0.249900  0.334210  1.0  0.7224
  C  C35  1  0.762500  0.084900  0.338030  1.0  0.3471
  C  C36  1  0.741500  0.936200  0.355880  1.0  -0.1903
  C  C37  1  0.415800  0.228300  0.385790  1.0  -0.2688
  C  C38  1  0.844400  0.191200  0.372300  1.0  -0.229
  C  C39  1  0.809600  0.899800  0.405280  1.0  -0.0898
  C  C40  1  0.343700  0.096100  0.399270  1.0  0.2982
  C  C41  1  0.463100  0.340900  0.420940  1.0  -0.0154
  C  C42  1  0.908000  0.154100  0.420250  1.0  -0.1031
  C  C43  1  0.893700  0.004400  0.437700  1.0  0.2207
  C  C44  1  0.322500  0.081000  0.447550  1.0  -0.2001
  C  C45  1  0.436700  0.326200  0.468680  1.0  0.1451
  C  C46  1  0.368300  0.193800  0.481600  1.0  -0.1794
  C  C47  1  0.344400  0.314100  0.175430  1.0  0.6528
  C  C48  1  0.560200  0.749900  0.165790  1.0  0.7198
  C  C49  1  0.237500  0.584900  0.161970  1.0  0.3466
  C  C50  1  0.258500  0.436200  0.144120  1.0  -0.1923
  C  C51  1  0.584200  0.728300  0.114210  1.0  -0.2686
  C  C52  1  0.155600  0.691200  0.127700  1.0  -0.2288
  C  C53  1  0.190400  0.399800  0.094720  1.0  -0.0888
  C  C54  1  0.656300  0.596100  0.100730  1.0  0.2983
  C  C55  1  0.536900  0.840900  0.079060  1.0  -0.0163
  C  C56  1  0.092000  0.654100  0.079750  1.0  -0.1039
  C  C57  1  0.106300  0.504400  0.062300  1.0  0.2219
  C  C58  1  0.677500  0.581000  0.052450  1.0  -0.2003
  C  C59  1  0.563300  0.826200  0.031320  1.0  0.1463
  C  C60  1  0.631700  0.693800  0.018400  1.0  -0.1798
  C  C61  1  0.344400  0.185900  0.675430  1.0  0.652
  C  C62  1  0.560200  0.750100  0.665790  1.0  0.7213
  C  C63  1  0.237500  0.915100  0.661970  1.0  0.3463
  C  C64  1  0.258500  0.063800  0.644120  1.0  -0.1919
  C  C65  1  0.584200  0.771700  0.614210  1.0  -0.269
  C  C66  1  0.155600  0.808800  0.627700  1.0  -0.2271
  C  C67  1  0.190400  0.100200  0.594720  1.0  -0.0887
  C  C68  1  0.656300  0.903900  0.600730  1.0  0.2987
  C  C69  1  0.536900  0.659100  0.579060  1.0  -0.0159
  C  C70  1  0.092000  0.845900  0.579750  1.0  -0.1024
  C  C71  1  0.106300  0.995600  0.562300  1.0  0.222
  C  C72  1  0.677500  0.919000  0.552450  1.0  -0.1995
  C  C73  1  0.563300  0.673800  0.531320  1.0  0.1452
  C  C74  1  0.631700  0.806200  0.518400  1.0  -0.1798
  C  C75  1  0.655600  0.685900  0.824570  1.0  0.6517
  C  C76  1  0.439800  0.250100  0.834210  1.0  0.7214
  C  C77  1  0.762500  0.415100  0.838030  1.0  0.348
  C  C78  1  0.741500  0.563800  0.855880  1.0  -0.1899
  C  C79  1  0.415800  0.271700  0.885790  1.0  -0.2692
  C  C80  1  0.844400  0.308800  0.872300  1.0  -0.2284
  C  C81  1  0.809600  0.600200  0.905280  1.0  -0.0894
  C  C82  1  0.343700  0.403900  0.899270  1.0  0.2986
  C  C83  1  0.463100  0.159100  0.920940  1.0  -0.0153
  C  C84  1  0.908000  0.345900  0.920250  1.0  -0.1026
  C  C85  1  0.893700  0.495600  0.937700  1.0  0.2202
  C  C86  1  0.322500  0.419000  0.947550  1.0  -0.1994
  C  C87  1  0.436700  0.173800  0.968680  1.0  0.1452
  C  C88  1  0.368300  0.306200  0.981600  1.0  -0.1789
  N  N89  1  0.962200  0.950800  0.485720  1.0  -0.2081
  N  N90  1  0.476000  0.438400  0.506880  1.0  -0.1606
  N  N91  1  0.037800  0.450800  0.014280  1.0  -0.208
  N  N92  1  0.524000  0.938400  0.993120  1.0  -0.1615
  N  N93  1  0.037800  0.049200  0.514280  1.0  -0.2074
  N  N94  1  0.524000  0.561600  0.493120  1.0  -0.1603
  N  N95  1  0.962200  0.549200  0.985720  1.0  -0.2068
  N  N96  1  0.476000  0.061600  0.006880  1.0  -0.1601
  O  O97  1  0.571300  0.843000  0.281490  1.0  -0.7418
  O  O98  1  0.398200  0.141200  0.303230  1.0  -0.6719
  O  O99  1  0.713900  0.126200  0.291120  1.0  -0.6483
  O  O100  1  0.501100  0.872100  0.176200  1.0  -0.7334
  O  O101  1  0.337300  0.178600  0.160250  1.0  -0.6755
  O  O102  1  0.294500  0.982400  0.366670  1.0  -0.4939
  O  O103  1  0.428700  0.343000  0.218510  1.0  -0.7421
  O  O104  1  0.601800  0.641200  0.196770  1.0  -0.6708
  O  O105  1  0.286100  0.626200  0.208880  1.0  -0.6516
  O  O106  1  0.498900  0.372100  0.323800  1.0  -0.7332
  O  O107  1  0.662700  0.678600  0.339750  1.0  -0.6761
  O  O108  1  0.705500  0.482400  0.133330  1.0  -0.4932
  O  O109  1  0.428700  0.157000  0.718510  1.0  -0.7429
  O  O110  1  0.601800  0.858800  0.696770  1.0  -0.6706
  O  O111  1  0.286100  0.873800  0.708880  1.0  -0.6507
  O  O112  1  0.498900  0.127900  0.823800  1.0  -0.7344
  O  O113  1  0.662700  0.821400  0.839750  1.0  -0.6758
  O  O114  1  0.705500  0.017600  0.633330  1.0  -0.4943
  O  O115  1  0.571300  0.657000  0.781490  1.0  -0.7416
  O  O116  1  0.398200  0.358800  0.803230  1.0  -0.6707
  O  O117  1  0.713900  0.373800  0.791120  1.0  -0.647
  O  O118  1  0.501100  0.627900  0.676200  1.0  -0.7333
  O  O119  1  0.337300  0.321400  0.660250  1.0  -0.6757
  O  O120  1  0.294500  0.517600  0.866670  1.0  -0.4944
