# generated using pymatgen
data_Sm2H12C31N5O13
_symmetry_space_group_name_H-M   'P 1'
_cell_length_a   15.53540000
_cell_length_b   15.89810000
_cell_length_c   13.31110000
_cell_angle_alpha   90.00000000
_cell_angle_beta   112.59200000
_cell_angle_gamma   90.00000000
_symmetry_Int_Tables_number   1
_chemical_formula_structural   Sm2H12C31N5O13
_chemical_formula_sum   'Sm4 H24 C62 N10 O26'
_cell_volume   3035.34072626
_cell_formula_units_Z   2
loop_
 _symmetry_equiv_pos_site_id
 _symmetry_equiv_pos_as_xyz
  1  'x, y, z'
loop_
 _atom_site_type_symbol
 _atom_site_label
 _atom_site_symmetry_multiplicity
 _atom_site_fract_x
 _atom_site_fract_y
 _atom_site_fract_z
 _atom_site_occupancy
 _atom_site_charge
  Sm  Sm1  1  0.427090  0.957200  0.592580  1.0  2.3102
  Sm  Sm2  1  0.572910  0.957200  0.907420  1.0  2.3097
  Sm  Sm3  1  0.572910  0.042800  0.407420  1.0  2.3101
  Sm  Sm4  1  0.427090  0.042800  0.092580  1.0  2.3108
  H  H5  1  0.216300  0.024200  0.860300  1.0  0.1295
  H  H6  1  0.116600  0.051500  0.487900  1.0  0.1278
  H  H7  1  0.013000  0.065000  0.569400  1.0  0.1359
  H  H8  1  0.514800  0.306300  0.478400  1.0  0.133
  H  H9  1  0.404900  0.474100  0.612500  1.0  0.1218
  H  H10  1  0.348100  0.370200  0.689300  1.0  0.1544
  H  H11  1  0.783700  0.024200  0.639700  1.0  0.13
  H  H12  1  0.883400  0.051500  0.012100  1.0  0.1288
  H  H13  1  0.987000  0.065000  0.930600  1.0  0.1349
  H  H14  1  0.485200  0.306300  0.021600  1.0  0.1336
  H  H15  1  0.595100  0.474100  0.887500  1.0  0.1201
  H  H16  1  0.651900  0.370200  0.810700  1.0  0.153
  H  H17  1  0.783700  0.975800  0.139700  1.0  0.1298
  H  H18  1  0.883400  0.948500  0.512100  1.0  0.1277
  H  H19  1  0.987000  0.935000  0.430600  1.0  0.1345
  H  H20  1  0.485200  0.693700  0.521600  1.0  0.1336
  H  H21  1  0.595100  0.525900  0.387500  1.0  0.1211
  H  H22  1  0.651900  0.629800  0.310700  1.0  0.1536
  H  H23  1  0.216300  0.975800  0.360300  1.0  0.1295
  H  H24  1  0.116600  0.948500  0.987900  1.0  0.1288
  H  H25  1  0.013000  0.935000  0.069400  1.0  0.1354
  H  H26  1  0.514800  0.693700  0.978400  1.0  0.133
  H  H27  1  0.404900  0.525900  0.112500  1.0  0.12
  H  H28  1  0.348100  0.629800  0.189300  1.0  0.1534
  C  C29  1  0.105000  0.044700  0.725000  1.0  0.1307
  C  C30  1  0.196800  0.029100  0.785200  1.0  -0.042
  C  C31  1  0.230700  0.025200  0.621000  1.0  0.3428
  C  C32  1  0.137300  0.044400  0.562900  1.0  -0.1615
  C  C33  1  0.075200  0.053300  0.611300  1.0  -0.1312
  C  C34  1  0.448600  0.253400  0.567600  1.0  -0.1672
  C  C35  1  0.263600  0.020100  0.737200  1.0  -0.1301
  C  C36  1  0.468700  0.400800  0.540600  1.0  0.1609
  C  C37  1  0.482300  0.319200  0.522200  1.0  -0.0546
  C  C38  1  0.359400  0.003900  0.806300  1.0  0.6956
  C  C39  1  0.466500  0.162100  0.542800  1.0  0.7637
  C  C40  1  0.417100  0.418200  0.602000  1.0  -0.005
  C  C41  1  0.383000  0.356600  0.648400  1.0  -0.2059
  C  C42  1  0.401900  0.273300  0.632900  1.0  0.3126
  C  C43  1  0.595000  0.660000  0.773000  1.0  -0.0113
  C  C44  1  0.895000  0.044700  0.775000  1.0  0.1329
  C  C45  1  0.803200  0.029100  0.714800  1.0  -0.0443
  C  C46  1  0.769300  0.025200  0.879000  1.0  0.3408
  C  C47  1  0.862700  0.044400  0.937100  1.0  -0.1619
  C  C48  1  0.924800  0.053300  0.888700  1.0  -0.1293
  C  C49  1  0.551400  0.253400  0.932400  1.0  -0.1676
  C  C50  1  0.736400  0.020100  0.762800  1.0  -0.1298
  C  C51  1  0.531300  0.400800  0.959400  1.0  0.1602
  C  C52  1  0.517700  0.319200  0.977800  1.0  -0.0559
  C  C53  1  0.640600  0.003900  0.693700  1.0  0.6963
  C  C54  1  0.533500  0.162100  0.957200  1.0  0.7636
  C  C55  1  0.582900  0.418200  0.898000  1.0  -0.0073
  C  C56  1  0.617000  0.356600  0.851600  1.0  -0.2049
  C  C57  1  0.598100  0.273300  0.867100  1.0  0.3115
  C  C58  1  0.405000  0.660000  0.727000  1.0  -0.0143
  C  C59  1  0.895000  0.955300  0.275000  1.0  0.1325
  C  C60  1  0.803200  0.970900  0.214800  1.0  -0.0444
  C  C61  1  0.769300  0.974800  0.379000  1.0  0.3407
  C  C62  1  0.862700  0.955600  0.437100  1.0  -0.1622
  C  C63  1  0.924800  0.946700  0.388700  1.0  -0.1277
  C  C64  1  0.551400  0.746600  0.432400  1.0  -0.1679
  C  C65  1  0.736400  0.979900  0.262800  1.0  -0.1297
  C  C66  1  0.531300  0.599200  0.459400  1.0  0.1711
  C  C67  1  0.517700  0.680800  0.477800  1.0  -0.0557
  C  C68  1  0.640600  0.996100  0.193700  1.0  0.6961
  C  C69  1  0.533500  0.837900  0.457200  1.0  0.764
  C  C70  1  0.582900  0.581800  0.398000  1.0  -0.0072
  C  C71  1  0.617000  0.643400  0.351600  1.0  -0.2043
  C  C72  1  0.598100  0.726700  0.367100  1.0  0.3107
  C  C73  1  0.405000  0.340000  0.227000  1.0  -0.0073
  C  C74  1  0.105000  0.955300  0.225000  1.0  0.1309
  C  C75  1  0.196800  0.970900  0.285200  1.0  -0.042
  C  C76  1  0.230700  0.974800  0.121000  1.0  0.3428
  C  C77  1  0.137300  0.955600  0.062900  1.0  -0.1616
  C  C78  1  0.075200  0.946700  0.111300  1.0  -0.1296
  C  C79  1  0.448600  0.746600  0.067600  1.0  -0.1673
  C  C80  1  0.263600  0.979900  0.237200  1.0  -0.1302
  C  C81  1  0.468700  0.599200  0.040600  1.0  0.1707
  C  C82  1  0.482300  0.680800  0.022200  1.0  -0.0545
  C  C83  1  0.359400  0.996100  0.306300  1.0  0.6956
  C  C84  1  0.466500  0.837900  0.042800  1.0  0.7638
  C  C85  1  0.417100  0.581800  0.102000  1.0  -0.0038
  C  C86  1  0.383000  0.643400  0.148400  1.0  -0.2057
  C  C87  1  0.401900  0.726700  0.132900  1.0  0.3122
  C  C88  1  0.595000  0.340000  0.273000  1.0  -0.0176
  C  C89  1  0.500000  0.784000  0.750000  1.0  0.3611
  C  C90  1  0.500000  0.216000  0.250000  1.0  0.3613
  N  N91  1  0.508700  0.463200  0.492400  1.0  -0.1505
  N  N92  1  0.042500  0.044800  0.781100  1.0  -0.2039
  N  N93  1  0.491300  0.463200  0.007600  1.0  -0.1506
  N  N94  1  0.957500  0.044800  0.718900  1.0  -0.2049
  N  N95  1  0.491300  0.536800  0.507600  1.0  -0.1512
  N  N96  1  0.957500  0.955200  0.218900  1.0  -0.2052
  N  N97  1  0.508700  0.536800  0.992400  1.0  -0.1501
  N  N98  1  0.042500  0.955200  0.281100  1.0  -0.2034
  N  N99  1  0.500000  0.692000  0.750000  1.0  -0.016
  N  N100  1  0.500000  0.308000  0.250000  1.0  -0.0171
  O  O101  1  0.445200  0.108700  0.595000  1.0  -0.6312
  O  O102  1  0.368600  0.213800  0.678600  1.0  -0.4877
  O  O103  1  0.387000  0.010500  0.909100  1.0  -0.803
  O  O104  1  0.499800  0.150500  0.471500  1.0  -0.7236
  O  O105  1  0.418300  0.984600  0.765900  1.0  -0.7058
  O  O106  1  0.285000  0.012700  0.568400  1.0  -0.6754
  O  O107  1  0.554800  0.108700  0.905000  1.0  -0.6316
  O  O108  1  0.631400  0.213800  0.821400  1.0  -0.4859
  O  O109  1  0.613000  0.010500  0.590900  1.0  -0.8002
  O  O110  1  0.500200  0.150500  0.028500  1.0  -0.7232
  O  O111  1  0.581700  0.984600  0.734100  1.0  -0.7067
  O  O112  1  0.715000  0.012700  0.931600  1.0  -0.6745
  O  O113  1  0.554800  0.891300  0.405000  1.0  -0.6317
  O  O114  1  0.631400  0.786200  0.321400  1.0  -0.4866
  O  O115  1  0.613000  0.989500  0.090900  1.0  -0.8001
  O  O116  1  0.500200  0.849500  0.528500  1.0  -0.7229
  O  O117  1  0.581700  0.015400  0.234100  1.0  -0.7075
  O  O118  1  0.715000  0.987300  0.431600  1.0  -0.6753
  O  O119  1  0.445200  0.891300  0.095000  1.0  -0.6314
  O  O120  1  0.368600  0.786200  0.178600  1.0  -0.4893
  O  O121  1  0.387000  0.989500  0.409100  1.0  -0.8028
  O  O122  1  0.499800  0.849500  0.971500  1.0  -0.7241
  O  O123  1  0.418300  0.015400  0.265900  1.0  -0.7055
  O  O124  1  0.285000  0.987300  0.068400  1.0  -0.6759
  O  O125  1  0.500000  0.844200  0.750000  1.0  -0.8056
  O  O126  1  0.500000  0.155800  0.250000  1.0  -0.8057
