# generated using pymatgen
data_TbH7C14(NO3)2
_symmetry_space_group_name_H-M   'P 1'
_cell_length_a   8.74200000
_cell_length_b   8.72900000
_cell_length_c   27.41500000
_cell_angle_alpha   90.00000000
_cell_angle_beta   102.19300000
_cell_angle_gamma   90.00000000
_symmetry_Int_Tables_number   1
_chemical_formula_structural   TbH7C14(NO3)2
_chemical_formula_sum   'Tb4 H28 C56 N8 O24'
_cell_volume   2044.81683149
_cell_formula_units_Z   4
loop_
 _symmetry_equiv_pos_site_id
 _symmetry_equiv_pos_as_xyz
  1  'x, y, z'
loop_
 _atom_site_type_symbol
 _atom_site_label
 _atom_site_symmetry_multiplicity
 _atom_site_fract_x
 _atom_site_fract_y
 _atom_site_fract_z
 _atom_site_occupancy
 _atom_site_charge
  Tb  Tb1  1  0.503380  0.562740  0.766660  1.0  2.2415
  Tb  Tb2  1  0.496620  0.062740  0.733340  1.0  2.2405
  Tb  Tb3  1  0.496620  0.437260  0.233340  1.0  2.2405
  Tb  Tb4  1  0.503380  0.937260  0.266660  1.0  2.2416
  H  H5  1  0.799200  0.800600  0.916900  1.0  0.1036
  H  H6  1  0.854800  0.290600  0.861400  1.0  0.1032
  H  H7  1  0.960800  0.227300  0.942200  1.0  0.1167
  H  H8  1  0.513500  0.427400  0.912500  1.0  0.0998
  H  H9  1  0.273400  0.994100  0.956800  1.0  0.1083
  H  H10  1  0.321300  0.003600  0.841900  1.0  0.3283
  H  H11  1  0.351900  0.183400  0.014200  1.0  0.0945
  H  H12  1  0.200800  0.300600  0.583100  1.0  0.1037
  H  H13  1  0.145200  0.790600  0.638600  1.0  0.1036
  H  H14  1  0.039200  0.727300  0.557800  1.0  0.1173
  H  H15  1  0.486500  0.927400  0.587500  1.0  0.0996
  H  H16  1  0.726600  0.494100  0.543200  1.0  0.1084
  H  H17  1  0.678700  0.503600  0.658100  1.0  0.3255
  H  H18  1  0.648100  0.683400  0.485800  1.0  0.095
  H  H19  1  0.200800  0.199400  0.083100  1.0  0.1035
  H  H20  1  0.145200  0.709400  0.138600  1.0  0.1036
  H  H21  1  0.039200  0.772700  0.057800  1.0  0.1172
  H  H22  1  0.486500  0.572600  0.087500  1.0  0.0998
  H  H23  1  0.726600  0.005900  0.043200  1.0  0.108
  H  H24  1  0.678700  0.996400  0.158100  1.0  0.3258
  H  H25  1  0.648100  0.816600  0.985800  1.0  0.0949
  H  H26  1  0.799200  0.699400  0.416900  1.0  0.1027
  H  H27  1  0.854800  0.209400  0.361400  1.0  0.1032
  H  H28  1  0.960800  0.272700  0.442200  1.0  0.1165
  H  H29  1  0.513500  0.072600  0.412500  1.0  0.0997
  H  H30  1  0.273400  0.505900  0.456800  1.0  0.1082
  H  H31  1  0.321300  0.496400  0.341900  1.0  0.3277
  H  H32  1  0.351900  0.316600  0.514200  1.0  0.0946
  C  C33  1  0.656400  0.814200  0.824790  1.0  0.6599
  C  C34  1  0.742200  0.935900  0.856000  1.0  -0.1931
  C  C35  1  0.810700  0.899400  0.905400  1.0  -0.03
  C  C36  1  0.762800  0.084400  0.838150  1.0  0.342
  C  C37  1  0.440500  0.249300  0.834510  1.0  0.7318
  C  C38  1  0.894100  0.004200  0.937380  1.0  0.2367
  C  C39  1  0.844000  0.190900  0.872150  1.0  -0.2289
  C  C40  1  0.415900  0.227500  0.885950  1.0  -0.2656
  C  C41  1  0.908100  0.153500  0.920520  1.0  -0.1151
  C  C42  1  0.343600  0.096600  0.899780  1.0  0.3057
  C  C43  1  0.463500  0.340500  0.921090  1.0  -0.04
  C  C44  1  0.320900  0.081800  0.947680  1.0  -0.1843
  C  C45  1  0.437700  0.326000  0.968860  1.0  0.1467
  C  C46  1  0.367500  0.194700  0.981870  1.0  -0.2061
  C  C47  1  0.343600  0.314200  0.675210  1.0  0.662
  C  C48  1  0.257800  0.435900  0.644000  1.0  -0.1945
  C  C49  1  0.189300  0.399400  0.594600  1.0  -0.0302
  C  C50  1  0.237200  0.584400  0.661850  1.0  0.3413
  C  C51  1  0.559500  0.749300  0.665490  1.0  0.7279
  C  C52  1  0.105900  0.504200  0.562620  1.0  0.2379
  C  C53  1  0.156000  0.690900  0.627850  1.0  -0.2293
  C  C54  1  0.584100  0.727500  0.614050  1.0  -0.265
  C  C55  1  0.091900  0.653500  0.579480  1.0  -0.1153
  C  C56  1  0.656400  0.596600  0.600220  1.0  0.3054
  C  C57  1  0.536500  0.840500  0.578910  1.0  -0.0409
  C  C58  1  0.679100  0.581800  0.552320  1.0  -0.1836
  C  C59  1  0.562300  0.826000  0.531140  1.0  0.1482
  C  C60  1  0.632500  0.694700  0.518130  1.0  -0.2065
  C  C61  1  0.343600  0.185800  0.175210  1.0  0.6614
  C  C62  1  0.257800  0.064100  0.144000  1.0  -0.1942
  C  C63  1  0.189300  0.100600  0.094600  1.0  -0.0297
  C  C64  1  0.237200  0.915600  0.161850  1.0  0.3409
  C  C65  1  0.559500  0.750700  0.165490  1.0  0.7288
  C  C66  1  0.105900  0.995800  0.062620  1.0  0.2379
  C  C67  1  0.156000  0.809100  0.127850  1.0  -0.2283
  C  C68  1  0.584100  0.772500  0.114050  1.0  -0.2651
  C  C69  1  0.091900  0.846500  0.079480  1.0  -0.1144
  C  C70  1  0.656400  0.903400  0.100220  1.0  0.306
  C  C71  1  0.536500  0.659500  0.078910  1.0  -0.0414
  C  C72  1  0.679100  0.918200  0.052320  1.0  -0.1844
  C  C73  1  0.562300  0.674000  0.031140  1.0  0.1472
  C  C74  1  0.632500  0.805300  0.018130  1.0  -0.2065
  C  C75  1  0.656400  0.685800  0.324790  1.0  0.6614
  C  C76  1  0.742200  0.564100  0.356000  1.0  -0.1926
  C  C77  1  0.810700  0.600600  0.405400  1.0  -0.0295
  C  C78  1  0.762800  0.415600  0.338150  1.0  0.343
  C  C79  1  0.440500  0.250700  0.334510  1.0  0.7311
  C  C80  1  0.894100  0.495800  0.437380  1.0  0.2361
  C  C81  1  0.844000  0.309100  0.372150  1.0  -0.2297
  C  C82  1  0.415900  0.272500  0.385950  1.0  -0.2659
  C  C83  1  0.908100  0.346500  0.420520  1.0  -0.1148
  C  C84  1  0.343600  0.403400  0.399780  1.0  0.3061
  C  C85  1  0.463500  0.159500  0.421090  1.0  -0.0404
  C  C86  1  0.320900  0.418200  0.447680  1.0  -0.1848
  C  C87  1  0.437700  0.174000  0.468860  1.0  0.1468
  C  C88  1  0.367500  0.305300  0.481870  1.0  -0.2061
  N  N89  1  0.962500  0.950400  0.986020  1.0  -0.1989
  N  N90  1  0.474900  0.438600  0.006890  1.0  -0.1767
  N  N91  1  0.037500  0.450400  0.513980  1.0  -0.199
  N  N92  1  0.525100  0.938600  0.493110  1.0  -0.1776
  N  N93  1  0.037500  0.049600  0.013980  1.0  -0.1977
  N  N94  1  0.525100  0.561400  0.993110  1.0  -0.1767
  N  N95  1  0.962500  0.549600  0.486020  1.0  -0.1969
  N  N96  1  0.474900  0.061400  0.506890  1.0  -0.1766
  O  O97  1  0.663000  0.678700  0.840190  1.0  -0.6779
  O  O98  1  0.572200  0.841900  0.781650  1.0  -0.7316
  O  O99  1  0.499800  0.870000  0.675840  1.0  -0.7309
  O  O100  1  0.714500  0.124600  0.790960  1.0  -0.6523
  O  O101  1  0.398500  0.139600  0.803800  1.0  -0.6578
  O  O102  1  0.295600  0.982200  0.867210  1.0  -0.527
  O  O103  1  0.337000  0.178700  0.659810  1.0  -0.6777
  O  O104  1  0.427800  0.341900  0.718350  1.0  -0.7323
  O  O105  1  0.500200  0.370000  0.824160  1.0  -0.7317
  O  O106  1  0.285500  0.624600  0.709040  1.0  -0.6557
  O  O107  1  0.601500  0.639600  0.696200  1.0  -0.6553
  O  O108  1  0.704400  0.482200  0.632790  1.0  -0.5256
  O  O109  1  0.337000  0.321300  0.159810  1.0  -0.6782
  O  O110  1  0.427800  0.158100  0.218350  1.0  -0.733
  O  O111  1  0.500200  0.130000  0.324160  1.0  -0.7327
  O  O112  1  0.285500  0.875400  0.209040  1.0  -0.6549
  O  O113  1  0.601500  0.860400  0.196200  1.0  -0.6553
  O  O114  1  0.704400  0.017800  0.132790  1.0  -0.5278
  O  O115  1  0.663000  0.821300  0.340190  1.0  -0.6778
  O  O116  1  0.572200  0.658100  0.281650  1.0  -0.7314
  O  O117  1  0.499800  0.630000  0.175840  1.0  -0.7312
  O  O118  1  0.714500  0.375400  0.290960  1.0  -0.6508
  O  O119  1  0.398500  0.360400  0.303800  1.0  -0.6562
  O  O120  1  0.295600  0.517800  0.367210  1.0  -0.5281
