# generated using pymatgen
data_HoH7C14(NO3)2
_symmetry_space_group_name_H-M   'P 1'
_cell_length_a   8.83040000
_cell_length_b   8.82570000
_cell_length_c   27.64400000
_cell_angle_alpha   90.00000000
_cell_angle_beta   102.14200000
_cell_angle_gamma   90.00000000
_symmetry_Int_Tables_number   1
_chemical_formula_structural   HoH7C14(NO3)2
_chemical_formula_sum   'Ho4 H28 C56 N8 O24'
_cell_volume   2106.22439228
_cell_formula_units_Z   4
loop_
 _symmetry_equiv_pos_site_id
 _symmetry_equiv_pos_as_xyz
  1  'x, y, z'
loop_
 _atom_site_type_symbol
 _atom_site_label
 _atom_site_symmetry_multiplicity
 _atom_site_fract_x
 _atom_site_fract_y
 _atom_site_fract_z
 _atom_site_occupancy
 _atom_site_charge
  Ho  Ho1  1  0.503790  0.939070  0.267060  1.0  2.1566
  Ho  Ho2  1  0.496210  0.439070  0.232940  1.0  2.1552
  Ho  Ho3  1  0.496210  0.060930  0.732940  1.0  2.155
  Ho  Ho4  1  0.503790  0.560930  0.767060  1.0  2.1564
  H  H5  1  0.723700  0.001800  0.041600  1.0  0.111
  H  H6  1  0.645300  0.815000  0.985200  1.0  0.1067
  H  H7  1  0.488700  0.573600  0.087500  1.0  0.1059
  H  H8  1  0.144000  0.713500  0.138000  1.0  0.1054
  H  H9  1  0.037500  0.776500  0.058500  1.0  0.1152
  H  H10  1  0.199100  0.197800  0.082800  1.0  0.1112
  H  H11  1  0.673000  0.991000  0.156900  1.0  0.3243
  H  H12  1  0.276300  0.501800  0.458400  1.0  0.1111
  H  H13  1  0.354700  0.315000  0.514800  1.0  0.1068
  H  H14  1  0.511300  0.073600  0.412500  1.0  0.106
  H  H15  1  0.856000  0.213500  0.362000  1.0  0.1053
  H  H16  1  0.962500  0.276500  0.441500  1.0  0.1149
  H  H17  1  0.800900  0.697800  0.417200  1.0  0.1122
  H  H18  1  0.327000  0.491000  0.343100  1.0  0.3232
  H  H19  1  0.276300  0.998200  0.958400  1.0  0.1109
  H  H20  1  0.354700  0.185000  0.014800  1.0  0.1068
  H  H21  1  0.511300  0.426400  0.912500  1.0  0.1062
  H  H22  1  0.856000  0.286500  0.862000  1.0  0.1052
  H  H23  1  0.962500  0.223500  0.941500  1.0  0.1154
  H  H24  1  0.800900  0.802200  0.917200  1.0  0.1125
  H  H25  1  0.327000  0.009000  0.843100  1.0  0.3229
  H  H26  1  0.723700  0.498200  0.541600  1.0  0.111
  H  H27  1  0.645300  0.685000  0.485200  1.0  0.1067
  H  H28  1  0.488700  0.926400  0.587500  1.0  0.1061
  H  H29  1  0.144000  0.786500  0.638000  1.0  0.1052
  H  H30  1  0.037500  0.723500  0.558500  1.0  0.1159
  H  H31  1  0.199100  0.302200  0.582800  1.0  0.1095
  H  H32  1  0.673000  0.509000  0.656900  1.0  0.3242
  C  C33  1  0.559300  0.753100  0.164400  1.0  0.7061
  C  C34  1  0.584100  0.773600  0.113000  1.0  -0.2543
  C  C35  1  0.654700  0.903300  0.099000  1.0  0.2994
  C  C36  1  0.676700  0.915500  0.051000  1.0  -0.1849
  C  C37  1  0.630800  0.803600  0.017400  1.0  -0.1858
  C  C38  1  0.562400  0.672200  0.030600  1.0  0.1273
  C  C39  1  0.537300  0.659500  0.078600  1.0  -0.022
  C  C40  1  0.341000  0.187900  0.174300  1.0  0.6637
  C  C41  1  0.255000  0.066500  0.143600  1.0  -0.1834
  C  C42  1  0.235400  0.918300  0.162100  1.0  0.3413
  C  C43  1  0.154300  0.812500  0.127500  1.0  -0.2149
  C  C44  1  0.090900  0.849500  0.079800  1.0  -0.0817
  C  C45  1  0.105500  0.996400  0.062500  1.0  0.2265
  C  C46  1  0.187600  0.100500  0.094400  1.0  -0.0328
  C  C47  1  0.440700  0.253100  0.335600  1.0  0.7103
  C  C48  1  0.415900  0.273600  0.387000  1.0  -0.2534
  C  C49  1  0.345300  0.403300  0.401000  1.0  0.2932
  C  C50  1  0.323300  0.415500  0.449000  1.0  -0.1845
  C  C51  1  0.369200  0.303600  0.482600  1.0  -0.1849
  C  C52  1  0.437600  0.172200  0.469400  1.0  0.1332
  C  C53  1  0.462700  0.159500  0.421400  1.0  -0.0217
  C  C54  1  0.659000  0.687900  0.325700  1.0  0.6633
  C  C55  1  0.745000  0.566500  0.356400  1.0  -0.1824
  C  C56  1  0.764600  0.418300  0.337900  1.0  0.3445
  C  C57  1  0.845700  0.312500  0.372500  1.0  -0.2167
  C  C58  1  0.909100  0.349500  0.420200  1.0  -0.0825
  C  C59  1  0.894500  0.496400  0.437500  1.0  0.2292
  C  C60  1  0.812400  0.600500  0.405600  1.0  -0.0339
  C  C61  1  0.440700  0.246900  0.835600  1.0  0.712
  C  C62  1  0.415900  0.226400  0.887000  1.0  -0.2531
  C  C63  1  0.345300  0.096700  0.901000  1.0  0.2925
  C  C64  1  0.323300  0.084500  0.949000  1.0  -0.1779
  C  C65  1  0.369200  0.196400  0.982600  1.0  -0.1855
  C  C66  1  0.437600  0.327800  0.969400  1.0  0.1322
  C  C67  1  0.462700  0.340500  0.921400  1.0  -0.0211
  C  C68  1  0.659000  0.812100  0.825700  1.0  0.6628
  C  C69  1  0.745000  0.933500  0.856400  1.0  -0.1827
  C  C70  1  0.764600  0.081700  0.837900  1.0  0.3438
  C  C71  1  0.845700  0.187500  0.872500  1.0  -0.2185
  C  C72  1  0.909100  0.150500  0.920200  1.0  -0.0825
  C  C73  1  0.894500  0.003600  0.937500  1.0  0.2297
  C  C74  1  0.812400  0.899500  0.905600  1.0  -0.0341
  C  C75  1  0.559300  0.746900  0.664400  1.0  0.7044
  C  C76  1  0.584100  0.726400  0.613000  1.0  -0.2536
  C  C77  1  0.654700  0.596700  0.599000  1.0  0.2949
  C  C78  1  0.676700  0.584500  0.551000  1.0  -0.184
  C  C79  1  0.630800  0.696400  0.517400  1.0  -0.1855
  C  C80  1  0.562400  0.827800  0.530600  1.0  0.1274
  C  C81  1  0.537300  0.840500  0.578600  1.0  -0.0212
  C  C82  1  0.341000  0.312100  0.674300  1.0  0.6637
  C  C83  1  0.255000  0.433500  0.643600  1.0  -0.1838
  C  C84  1  0.235400  0.581700  0.662100  1.0  0.3413
  C  C85  1  0.154300  0.687500  0.627500  1.0  -0.2217
  C  C86  1  0.090900  0.650500  0.579800  1.0  -0.0823
  C  C87  1  0.105500  0.503600  0.562500  1.0  0.2328
  C  C88  1  0.187600  0.399500  0.594400  1.0  -0.0332
  N  N89  1  0.524200  0.559900  0.993200  1.0  -0.1564
  N  N90  1  0.037400  0.048000  0.014100  1.0  -0.1982
  N  N91  1  0.475800  0.059900  0.506800  1.0  -0.1562
  N  N92  1  0.962600  0.548000  0.485900  1.0  -0.1979
  N  N93  1  0.475800  0.440100  0.006800  1.0  -0.1566
  N  N94  1  0.962600  0.952000  0.985900  1.0  -0.1989
  N  N95  1  0.524200  0.940100  0.493200  1.0  -0.1578
  N  N96  1  0.037400  0.452000  0.514100  1.0  -0.1985
  O  O97  1  0.498300  0.634500  0.175140  1.0  -0.7293
  O  O98  1  0.333800  0.320500  0.158760  1.0  -0.6657
  O  O99  1  0.600100  0.863300  0.194810  1.0  -0.6566
  O  O100  1  0.703300  0.016900  0.131000  1.0  -0.5019
  O  O101  1  0.282100  0.878700  0.208720  1.0  -0.6742
  O  O102  1  0.424800  0.159500  0.217380  1.0  -0.7664
  O  O103  1  0.501700  0.134500  0.324860  1.0  -0.7317
  O  O104  1  0.666200  0.820500  0.341240  1.0  -0.662
  O  O105  1  0.399900  0.363300  0.305190  1.0  -0.6568
  O  O106  1  0.296700  0.516900  0.369000  1.0  -0.5008
  O  O107  1  0.717900  0.378700  0.291280  1.0  -0.6712
  O  O108  1  0.575200  0.659500  0.282620  1.0  -0.7631
  O  O109  1  0.501700  0.365500  0.824860  1.0  -0.7302
  O  O110  1  0.666200  0.679500  0.841240  1.0  -0.6634
  O  O111  1  0.399900  0.136700  0.805190  1.0  -0.6587
  O  O112  1  0.296700  0.983100  0.869000  1.0  -0.4997
  O  O113  1  0.717900  0.121300  0.791280  1.0  -0.6716
  O  O114  1  0.575200  0.840500  0.782620  1.0  -0.7634
  O  O115  1  0.498300  0.865500  0.675140  1.0  -0.7279
  O  O116  1  0.333800  0.179500  0.658760  1.0  -0.6649
  O  O117  1  0.600100  0.636700  0.694810  1.0  -0.6565
  O  O118  1  0.703300  0.483100  0.631000  1.0  -0.5001
  O  O119  1  0.282100  0.621300  0.708720  1.0  -0.6741
  O  O120  1  0.424800  0.340500  0.717380  1.0  -0.7651
