# generated using pymatgen
data_ZnH13(C3O)5
_symmetry_space_group_name_H-M   'P 1'
_cell_length_a   18.95860000
_cell_length_b   18.95860000
_cell_length_c   38.05890000
_cell_angle_alpha   90.00000000
_cell_angle_beta   90.00000000
_cell_angle_gamma   120.00000000
_symmetry_Int_Tables_number   1
_chemical_formula_structural   ZnH13(C3O)5
_chemical_formula_sum   'Zn18 H234 C270 O90'
_cell_volume   11846.75456128
_cell_formula_units_Z   18
loop_
 _symmetry_equiv_pos_site_id
 _symmetry_equiv_pos_as_xyz
  1  'x, y, z'
loop_
 _atom_site_type_symbol
 _atom_site_label
 _atom_site_symmetry_multiplicity
 _atom_site_fract_x
 _atom_site_fract_y
 _atom_site_fract_z
 _atom_site_occupancy
 _atom_site_charge
  Zn  Zn1  1  0.808060  0.616460  0.999940  1.0  1.1367
  Zn  Zn2  1  0.858080  0.716680  0.934600  1.0  1.1316
  Zn  Zn3  1  0.474730  0.949790  0.333270  1.0  1.1367
  Zn  Zn4  1  0.524750  0.050010  0.267930  1.0  1.1316
  Zn  Zn5  1  0.141390  0.283130  0.666667  1.0  1.1321
  Zn  Zn6  1  0.191410  0.383350  0.601270  1.0  1.1301
  Zn  Zn7  1  0.383540  0.191600  0.999940  1.0  1.1371
  Zn  Zn8  1  0.283320  0.141400  0.934600  1.0  1.1282
  Zn  Zn9  1  0.050210  0.524930  0.333270  1.0  1.1371
  Zn  Zn10  1  0.949990  0.474730  0.267930  1.0  1.1282
  Zn  Zn11  1  0.716870  0.858270  0.666667  1.0  1.1344
  Zn  Zn12  1  0.616650  0.808070  0.601270  1.0  1.1338
  Zn  Zn13  1  0.808400  0.191940  0.999940  1.0  1.1317
  Zn  Zn14  1  0.858600  0.141920  0.934600  1.0  1.131
  Zn  Zn15  1  0.475070  0.525270  0.333270  1.0  1.1317
  Zn  Zn16  1  0.525270  0.475250  0.267930  1.0  1.131
  Zn  Zn17  1  0.141730  0.858610  0.666667  1.0  1.1314
  Zn  Zn18  1  0.191930  0.808590  0.601270  1.0  1.1271
  H  H19  1  0.096500  0.903400  0.971000  1.0  0.119
  H  H20  1  0.242900  0.974600  0.056800  1.0  0.1206
  H  H21  1  0.031300  0.758600  0.057200  1.0  0.1183
  H  H22  1  0.213400  0.926200  0.176500  1.0  0.0948
  H  H23  1  0.136700  0.725800  0.089900  1.0  0.1296
  H  H24  1  0.111400  0.615300  0.196200  1.0  0.1376
  H  H25  1  0.111500  0.497300  0.151500  1.0  0.0972
  H  H26  1  0.031300  0.506400  0.150400  1.0  0.0982
  H  H27  1  0.093100  0.610700  0.105500  1.0  0.0976
  H  H28  1  0.095000  0.532000  0.091600  1.0  0.1183
  H  H29  1  0.175600  0.607100  0.107700  1.0  0.1094
  H  H30  1  0.246200  0.635200  0.149400  1.0  0.0885
  H  H31  1  0.207900  0.558400  0.175200  1.0  0.1051
  H  H32  1  0.255000  0.648700  0.191000  1.0  0.0871
  H  H33  1  0.310600  0.070600  0.147300  1.0  0.1032
  H  H34  1  0.296900  0.182500  0.120700  1.0  0.0926
  H  H35  1  0.296000  0.128300  0.087700  1.0  0.1059
  H  H36  1  0.169400  0.098200  0.078200  1.0  0.1137
  H  H37  1  0.166000  0.138300  0.114700  1.0  0.1056
  H  H38  1  0.146000  0.045700  0.113600  1.0  0.1482
  H  H39  1  0.139000  0.978500  0.147300  1.0  0.0945
  H  H40  1  0.166700  0.069100  0.160000  1.0  0.092
  H  H41  1  0.194800  0.014800  0.181500  1.0  0.0958
  H  H42  1  0.309400  0.906100  0.211200  1.0  0.1194
  H  H43  1  0.232200  0.769800  0.299900  1.0  0.122
  H  H44  1  0.091000  0.697200  0.212500  1.0  0.1242
  H  H45  1  0.763170  0.236730  0.304330  1.0  0.119
  H  H46  1  0.909570  0.307930  0.390130  1.0  0.1206
  H  H47  1  0.697970  0.091930  0.390530  1.0  0.1183
  H  H48  1  0.880070  0.259530  0.509830  1.0  0.0948
  H  H49  1  0.803370  0.059130  0.423230  1.0  0.1296
  H  H50  1  0.778070  0.948630  0.529530  1.0  0.1376
  H  H51  1  0.778170  0.830630  0.484830  1.0  0.0972
  H  H52  1  0.697970  0.839730  0.483730  1.0  0.0954
  H  H53  1  0.759770  0.944030  0.438830  1.0  0.0976
  H  H54  1  0.761670  0.865330  0.424930  1.0  0.1183
  H  H55  1  0.842270  0.940430  0.441030  1.0  0.1094
  H  H56  1  0.912870  0.968530  0.482730  1.0  0.0885
  H  H57  1  0.874570  0.891730  0.508530  1.0  0.1051
  H  H58  1  0.921670  0.982030  0.524330  1.0  0.0871
  H  H59  1  0.977270  0.403930  0.480630  1.0  0.1032
  H  H60  1  0.963570  0.515830  0.454030  1.0  0.0926
  H  H61  1  0.962670  0.461630  0.421030  1.0  0.107
  H  H62  1  0.836070  0.431530  0.411530  1.0  0.1137
  H  H63  1  0.832670  0.471630  0.448030  1.0  0.1056
  H  H64  1  0.812670  0.379030  0.446930  1.0  0.1482
  H  H65  1  0.805670  0.311830  0.480630  1.0  0.0945
  H  H66  1  0.833370  0.402430  0.493330  1.0  0.092
  H  H67  1  0.861470  0.348130  0.514830  1.0  0.0926
  H  H68  1  0.976070  0.239430  0.544530  1.0  0.1193
  H  H69  1  0.898870  0.103130  0.633230  1.0  0.122
  H  H70  1  0.757670  0.030530  0.545830  1.0  0.1242
  H  H71  1  0.429830  0.570070  0.637670  1.0  0.119
  H  H72  1  0.576230  0.641270  0.723470  1.0  0.1206
  H  H73  1  0.364630  0.425270  0.723870  1.0  0.1183
  H  H74  1  0.546730  0.592870  0.843170  1.0  0.0948
  H  H75  1  0.470030  0.392470  0.756570  1.0  0.1296
  H  H76  1  0.444730  0.281970  0.862870  1.0  0.1376
  H  H77  1  0.444830  0.163970  0.818170  1.0  0.0972
  H  H78  1  0.364630  0.173070  0.817070  1.0  0.0982
  H  H79  1  0.426430  0.277370  0.772170  1.0  0.0979
  H  H80  1  0.428330  0.198670  0.758270  1.0  0.1183
  H  H81  1  0.508930  0.273770  0.774370  1.0  0.108
  H  H82  1  0.579530  0.301870  0.816070  1.0  0.0885
  H  H83  1  0.541230  0.225070  0.841870  1.0  0.1051
  H  H84  1  0.588330  0.315370  0.857670  1.0  0.0871
  H  H85  1  0.643930  0.737270  0.813970  1.0  0.1032
  H  H86  1  0.630230  0.849170  0.787370  1.0  0.0926
  H  H87  1  0.629330  0.794970  0.754370  1.0  0.1059
  H  H88  1  0.502730  0.764870  0.744870  1.0  0.1137
  H  H89  1  0.499330  0.804970  0.781370  1.0  0.1056
  H  H90  1  0.479330  0.712370  0.780270  1.0  0.1482
  H  H91  1  0.472330  0.645170  0.813970  1.0  0.0945
  H  H92  1  0.500030  0.735770  0.826670  1.0  0.092
  H  H93  1  0.528130  0.681470  0.848170  1.0  0.0958
  H  H94  1  0.642730  0.572770  0.877870  1.0  0.1194
  H  H95  1  0.565530  0.436470  0.966570  1.0  0.122
  H  H96  1  0.424330  0.363870  0.879170  1.0  0.1242
  H  H97  1  0.096600  0.193100  0.971000  1.0  0.1193
  H  H98  1  0.025400  0.268300  0.056800  1.0  0.1179
  H  H99  1  0.241400  0.272700  0.057200  1.0  0.1172
  H  H100  1  0.073800  0.287200  0.176500  1.0  0.0952
  H  H101  1  0.274200  0.410900  0.089900  1.0  0.1313
  H  H102  1  0.384700  0.496100  0.196200  1.0  0.1361
  H  H103  1  0.502700  0.614200  0.151500  1.0  0.1012
  H  H104  1  0.493600  0.524900  0.150400  1.0  0.0933
  H  H105  1  0.389300  0.482400  0.105500  1.0  0.0992
  H  H106  1  0.468000  0.563000  0.091600  1.0  0.1195
  H  H107  1  0.392900  0.568500  0.107700  1.0  0.1054
  H  H108  1  0.364800  0.611000  0.149400  1.0  0.0894
  H  H109  1  0.441600  0.649500  0.175200  1.0  0.1025
  H  H110  1  0.351300  0.606300  0.191000  1.0  0.0876
  H  H111  1  0.929400  0.240000  0.147300  1.0  0.1058
  H  H112  1  0.817500  0.114400  0.120700  1.0  0.0959
  H  H113  1  0.871700  0.167700  0.087700  1.0  0.1053
  H  H114  1  0.901800  0.071200  0.078200  1.0  0.1141
  H  H115  1  0.861700  0.027700  0.114700  1.0  0.1024
  H  H116  1  0.954300  0.100300  0.113600  1.0  0.1451
  H  H117  1  0.021500  0.160500  0.147300  1.0  0.0936
  H  H118  1  0.930900  0.097600  0.160000  1.0  0.0947
  H  H119  1  0.985200  0.180000  0.181500  1.0  0.0897
  H  H120  1  0.093900  0.403300  0.211200  1.0  0.12
  H  H121  1  0.230200  0.462400  0.299900  1.0  0.1217
  H  H122  1  0.302800  0.393800  0.212500  1.0  0.1263
  H  H123  1  0.763270  0.526430  0.304330  1.0  0.1193
  H  H124  1  0.692070  0.601630  0.390130  1.0  0.1179
  H  H125  1  0.908070  0.606030  0.390530  1.0  0.1172
  H  H126  1  0.740470  0.620530  0.509830  1.0  0.0952
  H  H127  1  0.940870  0.744230  0.423230  1.0  0.1313
  H  H128  1  0.051370  0.829430  0.529530  1.0  0.1361
  H  H129  1  0.169370  0.947530  0.484830  1.0  0.1012
  H  H130  1  0.160270  0.858230  0.483730  1.0  0.0957
  H  H131  1  0.055970  0.815730  0.438830  1.0  0.0992
  H  H132  1  0.134670  0.896330  0.424930  1.0  0.1195
  H  H133  1  0.059570  0.901830  0.441030  1.0  0.1054
  H  H134  1  0.031470  0.944330  0.482730  1.0  0.0894
  H  H135  1  0.108270  0.982830  0.508530  1.0  0.1025
  H  H136  1  0.017970  0.939630  0.524330  1.0  0.0876
  H  H137  1  0.596070  0.573330  0.480630  1.0  0.1057
  H  H138  1  0.484170  0.447730  0.454030  1.0  0.0959
  H  H139  1  0.538370  0.501030  0.421030  1.0  0.1053
  H  H140  1  0.568470  0.404530  0.411530  1.0  0.1141
  H  H141  1  0.528370  0.361030  0.448030  1.0  0.1024
  H  H142  1  0.620970  0.433630  0.446930  1.0  0.1451
  H  H143  1  0.688170  0.493830  0.480630  1.0  0.0936
  H  H144  1  0.597570  0.430930  0.493330  1.0  0.0947
  H  H145  1  0.651870  0.513330  0.514830  1.0  0.0928
  H  H146  1  0.760570  0.736630  0.544530  1.0  0.12
  H  H147  1  0.896870  0.795730  0.633230  1.0  0.1212
  H  H148  1  0.969470  0.727130  0.545830  1.0  0.1263
  H  H149  1  0.429930  0.859770  0.637670  1.0  0.1193
  H  H150  1  0.358730  0.934970  0.723470  1.0  0.1179
  H  H151  1  0.574730  0.939370  0.723870  1.0  0.1173
  H  H152  1  0.407130  0.953870  0.843170  1.0  0.0952
  H  H153  1  0.607530  0.077570  0.756570  1.0  0.1313
  H  H154  1  0.718030  0.162770  0.862870  1.0  0.1361
  H  H155  1  0.836030  0.280870  0.818170  1.0  0.1012
  H  H156  1  0.826930  0.191570  0.817070  1.0  0.0933
  H  H157  1  0.722630  0.149070  0.772170  1.0  0.0994
  H  H158  1  0.801330  0.229670  0.758270  1.0  0.1196
  H  H159  1  0.726230  0.235170  0.774370  1.0  0.1067
  H  H160  1  0.698130  0.277670  0.816070  1.0  0.0894
  H  H161  1  0.774930  0.316170  0.841870  1.0  0.1025
  H  H162  1  0.684630  0.272970  0.857670  1.0  0.0876
  H  H163  1  0.262730  0.906670  0.813970  1.0  0.1058
  H  H164  1  0.150830  0.781070  0.787370  1.0  0.0959
  H  H165  1  0.205030  0.834370  0.754370  1.0  0.1052
  H  H166  1  0.235130  0.737870  0.744870  1.0  0.1141
  H  H167  1  0.195030  0.694370  0.781370  1.0  0.1024
  H  H168  1  0.287630  0.766970  0.780270  1.0  0.1451
  H  H169  1  0.354830  0.827170  0.813970  1.0  0.0936
  H  H170  1  0.264230  0.764270  0.826670  1.0  0.0947
  H  H171  1  0.318530  0.846670  0.848170  1.0  0.0897
  H  H172  1  0.427230  0.069970  0.877870  1.0  0.12
  H  H173  1  0.563530  0.129070  0.966570  1.0  0.1217
  H  H174  1  0.636130  0.060470  0.879170  1.0  0.1263
  H  H175  1  0.806900  0.903500  0.971000  1.0  0.1187
  H  H176  1  0.731700  0.757100  0.056800  1.0  0.1183
  H  H177  1  0.727300  0.968700  0.057200  1.0  0.1172
  H  H178  1  0.712800  0.786600  0.176500  1.0  0.0965
  H  H179  1  0.589100  0.863300  0.089900  1.0  0.1305
  H  H180  1  0.503900  0.888600  0.196200  1.0  0.1335
  H  H181  1  0.385800  0.888500  0.151500  1.0  0.0974
  H  H182  1  0.475100  0.968700  0.150400  1.0  0.102
  H  H183  1  0.517600  0.906900  0.105500  1.0  0.099
  H  H184  1  0.437000  0.905000  0.091600  1.0  0.1189
  H  H185  1  0.431500  0.824400  0.107700  1.0  0.1132
  H  H186  1  0.389000  0.753800  0.149400  1.0  0.0887
  H  H187  1  0.350500  0.792100  0.175200  1.0  0.1017
  H  H188  1  0.393700  0.745000  0.191000  1.0  0.0877
  H  H189  1  0.760000  0.689400  0.147300  1.0  0.1013
  H  H190  1  0.885600  0.703100  0.120700  1.0  0.0953
  H  H191  1  0.832300  0.704000  0.087700  1.0  0.1057
  H  H192  1  0.928800  0.830600  0.078200  1.0  0.1138
  H  H193  1  0.972300  0.834000  0.114700  1.0  0.1056
  H  H194  1  0.899700  0.854000  0.113600  1.0  0.1456
  H  H195  1  0.839500  0.861000  0.147300  1.0  0.0956
  H  H196  1  0.902400  0.833300  0.160000  1.0  0.0927
  H  H197  1  0.820000  0.805200  0.181500  1.0  0.0932
  H  H198  1  0.596700  0.690600  0.211200  1.0  0.12
  H  H199  1  0.537600  0.767800  0.299900  1.0  0.1209
  H  H200  1  0.606200  0.909000  0.212500  1.0  0.1252
  H  H201  1  0.473570  0.236830  0.304330  1.0  0.1187
  H  H202  1  0.398370  0.090430  0.390130  1.0  0.1183
  H  H203  1  0.393970  0.302030  0.390530  1.0  0.1172
  H  H204  1  0.379470  0.119930  0.509830  1.0  0.0965
  H  H205  1  0.255770  0.196630  0.423230  1.0  0.1305
  H  H206  1  0.170570  0.221930  0.529530  1.0  0.1336
  H  H207  1  0.052470  0.221830  0.484830  1.0  0.0974
  H  H208  1  0.141770  0.302030  0.483730  1.0  0.1019
  H  H209  1  0.184270  0.240230  0.438830  1.0  0.099
  H  H210  1  0.103670  0.238330  0.424930  1.0  0.1189
  H  H211  1  0.098170  0.157730  0.441030  1.0  0.1132
  H  H212  1  0.055670  0.087130  0.482730  1.0  0.0887
  H  H213  1  0.017170  0.125430  0.508530  1.0  0.1017
  H  H214  1  0.060370  0.078330  0.524330  1.0  0.0877
  H  H215  1  0.426670  0.022730  0.480630  1.0  0.1013
  H  H216  1  0.552270  0.036430  0.454030  1.0  0.0953
  H  H217  1  0.498970  0.037330  0.421030  1.0  0.1068
  H  H218  1  0.595470  0.163930  0.411530  1.0  0.1138
  H  H219  1  0.638970  0.167330  0.448030  1.0  0.1056
  H  H220  1  0.566370  0.187330  0.446930  1.0  0.1456
  H  H221  1  0.506170  0.194330  0.480630  1.0  0.0956
  H  H222  1  0.569070  0.166630  0.493330  1.0  0.0927
  H  H223  1  0.486670  0.138530  0.514830  1.0  0.0932
  H  H224  1  0.263370  0.023930  0.544530  1.0  0.12
  H  H225  1  0.204270  0.101130  0.633230  1.0  0.1212
  H  H226  1  0.272870  0.242330  0.545830  1.0  0.1252
  H  H227  1  0.140230  0.570170  0.637670  1.0  0.1187
  H  H228  1  0.065030  0.423770  0.723470  1.0  0.1183
  H  H229  1  0.060630  0.635370  0.723870  1.0  0.1172
  H  H230  1  0.046130  0.453270  0.843170  1.0  0.0962
  H  H231  1  0.922430  0.529970  0.756570  1.0  0.1305
  H  H232  1  0.837230  0.555270  0.862870  1.0  0.1335
  H  H233  1  0.719130  0.555170  0.818170  1.0  0.0974
  H  H234  1  0.808430  0.635370  0.817070  1.0  0.102
  H  H235  1  0.850930  0.573570  0.772170  1.0  0.0991
  H  H236  1  0.770330  0.571670  0.758270  1.0  0.1189
  H  H237  1  0.764830  0.491070  0.774370  1.0  0.1128
  H  H238  1  0.722330  0.420470  0.816070  1.0  0.0887
  H  H239  1  0.683830  0.458770  0.841870  1.0  0.1017
  H  H240  1  0.727030  0.411670  0.857670  1.0  0.0877
  H  H241  1  0.093330  0.356070  0.813970  1.0  0.1013
  H  H242  1  0.218930  0.369770  0.787370  1.0  0.0953
  H  H243  1  0.165630  0.370670  0.754370  1.0  0.1056
  H  H244  1  0.262130  0.497270  0.744870  1.0  0.1138
  H  H245  1  0.305630  0.500670  0.781370  1.0  0.1056
  H  H246  1  0.233030  0.520670  0.780270  1.0  0.1456
  H  H247  1  0.172830  0.527670  0.813970  1.0  0.0956
  H  H248  1  0.235730  0.499970  0.826670  1.0  0.0927
  H  H249  1  0.153330  0.471870  0.848170  1.0  0.0932
  H  H250  1  0.930030  0.357270  0.877870  1.0  0.12
  H  H251  1  0.870930  0.434470  0.966570  1.0  0.1209
  H  H252  1  0.939530  0.575670  0.879170  1.0  0.1252
  C  C253  1  0.971900  0.762800  0.991200  1.0  0.7198
  C  C254  1  0.052700  0.822000  0.011460  1.0  -0.1676
  C  C255  1  0.107500  0.893400  0.994310  1.0  0.0125
  C  C256  1  0.178400  0.950300  0.011200  1.0  -0.1808
  C  C257  1  0.194500  0.935700  0.045240  1.0  -0.1051
  C  C258  1  0.139700  0.864300  0.062400  1.0  0.013
  C  C259  1  0.068800  0.807400  0.045500  1.0  -0.0589
  C  C260  1  0.240600  0.026100  0.993500  1.0  0.7242
  C  C261  1  0.164300  0.843000  0.098700  1.0  -0.0132
  C  C262  1  0.187100  0.902500  0.124400  1.0  0.144
  C  C263  1  0.197800  0.885600  0.158900  1.0  -0.166
  C  C264  1  0.185700  0.809100  0.167700  1.0  0.0216
  C  C265  1  0.162900  0.749600  0.142000  1.0  0.3152
  C  C266  1  0.152200  0.766500  0.107500  1.0  -0.1173
  C  C267  1  0.136500  0.616000  0.173000  1.0  0.0291
  C  C268  1  0.091100  0.535500  0.147200  1.0  -0.1445
  C  C269  1  0.116100  0.575100  0.109400  1.0  -0.3368
  C  C270  1  0.219300  0.614400  0.172100  1.0  -0.339
  C  C271  1  0.259600  0.060600  0.135200  1.0  0.1246
  C  C272  1  0.267900  0.127900  0.109700  1.0  -0.1471
  C  C273  1  0.179700  0.100100  0.103500  1.0  -0.3567
  C  C274  1  0.183100  0.027800  0.158100  1.0  -0.3831
  C  C275  1  0.097700  0.638400  0.275600  1.0  0.5939
  C  C276  1  0.356400  0.901100  0.272200  1.0  0.6929
  C  C277  1  0.198200  0.803700  0.206380  1.0  0.032
  C  C278  1  0.269400  0.859400  0.223400  1.0  -0.136
  C  C279  1  0.282100  0.846800  0.258200  1.0  -0.0629
  C  C280  1  0.223600  0.778400  0.276080  1.0  -0.0402
  C  C281  1  0.152400  0.722700  0.259000  1.0  -0.1195
  C  C282  1  0.139700  0.735300  0.224200  1.0  -0.1099
  C  C283  1  0.638570  0.096130  0.324530  1.0  0.7201
  C  C284  1  0.719370  0.155330  0.344790  1.0  -0.1676
  C  C285  1  0.774170  0.226730  0.327640  1.0  0.0125
  C  C286  1  0.845070  0.283630  0.344530  1.0  -0.1808
  C  C287  1  0.861170  0.269030  0.378570  1.0  -0.1051
  C  C288  1  0.806370  0.197630  0.395730  1.0  0.013
  C  C289  1  0.735470  0.140730  0.378830  1.0  -0.0589
  C  C290  1  0.907270  0.359430  0.326830  1.0  0.7242
  C  C291  1  0.830970  0.176330  0.432030  1.0  -0.0132
  C  C292  1  0.853770  0.235830  0.457730  1.0  0.144
  C  C293  1  0.864470  0.218930  0.492230  1.0  -0.166
  C  C294  1  0.852370  0.142430  0.501030  1.0  0.0216
  C  C295  1  0.829570  0.082930  0.475330  1.0  0.3152
  C  C296  1  0.818870  0.099830  0.440830  1.0  -0.1173
  C  C297  1  0.803170  0.949330  0.506330  1.0  0.0291
  C  C298  1  0.757770  0.868830  0.480530  1.0  -0.1445
  C  C299  1  0.782770  0.908430  0.442730  1.0  -0.3368
  C  C300  1  0.885970  0.947730  0.505430  1.0  -0.339
  C  C301  1  0.926270  0.393930  0.468530  1.0  0.1246
  C  C302  1  0.934570  0.461230  0.443030  1.0  -0.1471
  C  C303  1  0.846370  0.433430  0.436830  1.0  -0.3567
  C  C304  1  0.849770  0.361130  0.491430  1.0  -0.3831
  C  C305  1  0.764370  0.971730  0.608930  1.0  0.5941
  C  C306  1  0.023070  0.234430  0.605530  1.0  0.6929
  C  C307  1  0.864870  0.137030  0.539710  1.0  0.032
  C  C308  1  0.936070  0.192730  0.556730  1.0  -0.136
  C  C309  1  0.948770  0.180130  0.591530  1.0  -0.0629
  C  C310  1  0.890270  0.111730  0.609410  1.0  -0.0402
  C  C311  1  0.819070  0.056030  0.592330  1.0  -0.1195
  C  C312  1  0.806370  0.068630  0.557530  1.0  -0.1099
  C  C313  1  0.305230  0.429470  0.657870  1.0  0.72
  C  C314  1  0.386030  0.488670  0.678130  1.0  -0.1676
  C  C315  1  0.440830  0.560070  0.660980  1.0  0.0125
  C  C316  1  0.511730  0.616970  0.677870  1.0  -0.1808
  C  C317  1  0.527830  0.602370  0.711910  1.0  -0.1051
  C  C318  1  0.473030  0.530970  0.729070  1.0  0.013
  C  C319  1  0.402130  0.474070  0.712170  1.0  -0.0589
  C  C320  1  0.573930  0.692770  0.660170  1.0  0.7242
  C  C321  1  0.497630  0.509670  0.765370  1.0  -0.0132
  C  C322  1  0.520430  0.569170  0.791070  1.0  0.144
  C  C323  1  0.531130  0.552270  0.825570  1.0  -0.166
  C  C324  1  0.519030  0.475770  0.834370  1.0  0.0216
  C  C325  1  0.496230  0.416270  0.808670  1.0  0.3152
  C  C326  1  0.485530  0.433170  0.774170  1.0  -0.1173
  C  C327  1  0.469830  0.282670  0.839670  1.0  0.0291
  C  C328  1  0.424430  0.202170  0.813870  1.0  -0.1445
  C  C329  1  0.449430  0.241770  0.776070  1.0  -0.3368
  C  C330  1  0.552630  0.281070  0.838770  1.0  -0.339
  C  C331  1  0.592930  0.727270  0.801870  1.0  0.1246
  C  C332  1  0.601230  0.794570  0.776370  1.0  -0.1471
  C  C333  1  0.513030  0.766770  0.770170  1.0  -0.3567
  C  C334  1  0.516430  0.694470  0.824770  1.0  -0.3831
  C  C335  1  0.431030  0.305070  0.942270  1.0  0.5939
  C  C336  1  0.689730  0.567770  0.938870  1.0  0.6929
  C  C337  1  0.531530  0.470370  0.873050  1.0  0.032
  C  C338  1  0.602730  0.526070  0.890070  1.0  -0.136
  C  C339  1  0.615430  0.513470  0.924870  1.0  -0.0629
  C  C340  1  0.556930  0.445070  0.942750  1.0  -0.0402
  C  C341  1  0.485730  0.389370  0.925670  1.0  -0.1195
  C  C342  1  0.473030  0.401970  0.890870  1.0  -0.1099
  C  C343  1  0.237200  0.209100  0.991200  1.0  0.7168
  C  C344  1  0.178000  0.230700  0.011460  1.0  -0.1638
  C  C345  1  0.106600  0.214100  0.994310  1.0  0.0136
  C  C346  1  0.049700  0.228100  0.011200  1.0  -0.1769
  C  C347  1  0.064300  0.258800  0.045240  1.0  -0.1078
  C  C348  1  0.135700  0.275400  0.062400  1.0  0.0195
  C  C349  1  0.192600  0.261400  0.045500  1.0  -0.0579
  C  C350  1  0.973900  0.214500  0.993500  1.0  0.7233
  C  C351  1  0.157000  0.321300  0.098700  1.0  -0.0099
  C  C352  1  0.097500  0.284600  0.124400  1.0  0.1433
  C  C353  1  0.114400  0.312200  0.158900  1.0  -0.1655
  C  C354  1  0.190900  0.376600  0.167700  1.0  0.0233
  C  C355  1  0.250400  0.413300  0.142000  1.0  0.3152
  C  C356  1  0.233500  0.385700  0.107500  1.0  -0.1172
  C  C357  1  0.384000  0.520500  0.173000  1.0  0.03
  C  C358  1  0.464500  0.555600  0.147200  1.0  -0.1428
  C  C359  1  0.424900  0.541000  0.109400  1.0  -0.3317
  C  C360  1  0.385600  0.604900  0.172100  1.0  -0.3381
  C  C361  1  0.939400  0.199000  0.135200  1.0  0.1204
  C  C362  1  0.872100  0.140000  0.109700  1.0  -0.1464
  C  C363  1  0.899900  0.079600  0.103500  1.0  -0.3585
  C  C364  1  0.972200  0.155300  0.158100  1.0  -0.3825
  C  C365  1  0.361600  0.459300  0.275600  1.0  0.5942
  C  C366  1  0.098900  0.455300  0.272200  1.0  0.6945
  C  C367  1  0.196300  0.394500  0.206380  1.0  0.0386
  C  C368  1  0.140600  0.410000  0.223400  1.0  -0.1321
  C  C369  1  0.153200  0.435300  0.258200  1.0  -0.0576
  C  C370  1  0.221600  0.445200  0.276080  1.0  -0.0401
  C  C371  1  0.277300  0.429700  0.259000  1.0  -0.1178
  C  C372  1  0.264700  0.404400  0.224200  1.0  -0.1111
  C  C373  1  0.903870  0.542430  0.324530  1.0  0.7187
  C  C374  1  0.844670  0.564030  0.344790  1.0  -0.1638
  C  C375  1  0.773270  0.547430  0.327640  1.0  0.0136
  C  C376  1  0.716370  0.561430  0.344530  1.0  -0.1769
  C  C377  1  0.730970  0.592130  0.378570  1.0  -0.1078
  C  C378  1  0.802370  0.608730  0.395730  1.0  0.0195
  C  C379  1  0.859270  0.594730  0.378830  1.0  -0.0579
  C  C380  1  0.640570  0.547830  0.326830  1.0  0.7233
  C  C381  1  0.823670  0.654630  0.432030  1.0  -0.0099
  C  C382  1  0.764170  0.617930  0.457730  1.0  0.1433
  C  C383  1  0.781070  0.645530  0.492230  1.0  -0.1655
  C  C384  1  0.857570  0.709930  0.501030  1.0  0.0233
  C  C385  1  0.917070  0.746630  0.475330  1.0  0.3152
  C  C386  1  0.900170  0.719030  0.440830  1.0  -0.1172
  C  C387  1  0.050670  0.853830  0.506330  1.0  0.03
  C  C388  1  0.131170  0.888930  0.480530  1.0  -0.1428
  C  C389  1  0.091570  0.874330  0.442730  1.0  -0.3316
  C  C390  1  0.052270  0.938230  0.505430  1.0  -0.3381
  C  C391  1  0.606070  0.532330  0.468530  1.0  0.1204
  C  C392  1  0.538770  0.473330  0.443030  1.0  -0.1464
  C  C393  1  0.566570  0.412930  0.436830  1.0  -0.3585
  C  C394  1  0.638870  0.488630  0.491430  1.0  -0.3823
  C  C395  1  0.028270  0.792630  0.608930  1.0  0.5944
  C  C396  1  0.765570  0.788630  0.605530  1.0  0.6945
  C  C397  1  0.862970  0.727830  0.539710  1.0  0.0386
  C  C398  1  0.807270  0.743330  0.556730  1.0  -0.1321
  C  C399  1  0.819870  0.768630  0.591530  1.0  -0.0575
  C  C400  1  0.888270  0.778530  0.609410  1.0  -0.0401
  C  C401  1  0.943970  0.763030  0.592330  1.0  -0.1178
  C  C402  1  0.931370  0.737730  0.557530  1.0  -0.1111
  C  C403  1  0.570530  0.875770  0.657870  1.0  0.7185
  C  C404  1  0.511330  0.897370  0.678130  1.0  -0.1638
  C  C405  1  0.439930  0.880770  0.660980  1.0  0.0132
  C  C406  1  0.383030  0.894770  0.677870  1.0  -0.1769
  C  C407  1  0.397630  0.925470  0.711910  1.0  -0.1078
  C  C408  1  0.469030  0.942070  0.729070  1.0  0.0195
  C  C409  1  0.525930  0.928070  0.712170  1.0  -0.0579
  C  C410  1  0.307230  0.881170  0.660170  1.0  0.7232
  C  C411  1  0.490330  0.987970  0.765370  1.0  -0.0099
  C  C412  1  0.430830  0.951270  0.791070  1.0  0.1433
  C  C413  1  0.447730  0.978870  0.825570  1.0  -0.1655
  C  C414  1  0.524230  0.043270  0.834370  1.0  0.0233
  C  C415  1  0.583730  0.079970  0.808670  1.0  0.3152
  C  C416  1  0.566830  0.052370  0.774170  1.0  -0.1172
  C  C417  1  0.717330  0.187170  0.839670  1.0  0.03
  C  C418  1  0.797830  0.222270  0.813870  1.0  -0.1428
  C  C419  1  0.758230  0.207670  0.776070  1.0  -0.3317
  C  C420  1  0.718930  0.271570  0.838770  1.0  -0.3381
  C  C421  1  0.272730  0.865670  0.801870  1.0  0.1204
  C  C422  1  0.205430  0.806670  0.776370  1.0  -0.1464
  C  C423  1  0.233230  0.746270  0.770170  1.0  -0.3585
  C  C424  1  0.305530  0.821970  0.824770  1.0  -0.3823
  C  C425  1  0.694930  0.125970  0.942270  1.0  0.5942
  C  C426  1  0.432230  0.121970  0.938870  1.0  0.6945
  C  C427  1  0.529630  0.061170  0.873050  1.0  0.0386
  C  C428  1  0.473930  0.076670  0.890070  1.0  -0.1321
  C  C429  1  0.486530  0.101970  0.924870  1.0  -0.0576
  C  C430  1  0.554930  0.111870  0.942750  1.0  -0.0401
  C  C431  1  0.610630  0.096370  0.925670  1.0  -0.1178
  C  C432  1  0.598030  0.071070  0.890870  1.0  -0.1111
  C  C433  1  0.790900  0.028100  0.991200  1.0  0.7201
  C  C434  1  0.769300  0.947300  0.011460  1.0  -0.1653
  C  C435  1  0.785900  0.892500  0.994310  1.0  0.0119
  C  C436  1  0.771900  0.821600  0.011200  1.0  -0.181
  C  C437  1  0.741200  0.805500  0.045240  1.0  -0.1055
  C  C438  1  0.724600  0.860300  0.062400  1.0  0.0149
  C  C439  1  0.738600  0.931200  0.045500  1.0  -0.059
  C  C440  1  0.785500  0.759400  0.993500  1.0  0.7244
  C  C441  1  0.678700  0.835700  0.098700  1.0  -0.0134
  C  C442  1  0.715400  0.812900  0.124400  1.0  0.1429
  C  C443  1  0.687800  0.802200  0.158900  1.0  -0.1682
  C  C444  1  0.623400  0.814300  0.167700  1.0  0.0227
  C  C445  1  0.586700  0.837100  0.142000  1.0  0.316
  C  C446  1  0.614300  0.847800  0.107500  1.0  -0.1155
  C  C447  1  0.479500  0.863500  0.173000  1.0  0.0285
  C  C448  1  0.444400  0.908900  0.147200  1.0  -0.144
  C  C449  1  0.459000  0.883900  0.109400  1.0  -0.3359
  C  C450  1  0.395100  0.780700  0.172100  1.0  -0.338
  C  C451  1  0.801000  0.740400  0.135200  1.0  0.1237
  C  C452  1  0.860000  0.732100  0.109700  1.0  -0.1492
  C  C453  1  0.920400  0.820300  0.103500  1.0  -0.362
  C  C454  1  0.844700  0.816900  0.158100  1.0  -0.3805
  C  C455  1  0.540700  0.902300  0.275600  1.0  0.5931
  C  C456  1  0.544700  0.643600  0.272200  1.0  0.6944
  C  C457  1  0.605500  0.801800  0.206380  1.0  0.0308
  C  C458  1  0.590000  0.730600  0.223400  1.0  -0.1326
  C  C459  1  0.564700  0.717900  0.258200  1.0  -0.0602
  C  C460  1  0.554800  0.776400  0.276080  1.0  -0.0404
  C  C461  1  0.570300  0.847600  0.259000  1.0  -0.1207
  C  C462  1  0.595600  0.860300  0.224200  1.0  -0.1092
  C  C463  1  0.457570  0.361430  0.324530  1.0  0.7225
  C  C464  1  0.435970  0.280630  0.344790  1.0  -0.1653
  C  C465  1  0.452570  0.225830  0.327640  1.0  0.0119
  C  C466  1  0.438570  0.154930  0.344530  1.0  -0.181
  C  C467  1  0.407870  0.138830  0.378570  1.0  -0.1055
  C  C468  1  0.391270  0.193630  0.395730  1.0  0.0149
  C  C469  1  0.405270  0.264530  0.378830  1.0  -0.059
  C  C470  1  0.452170  0.092730  0.326830  1.0  0.7244
  C  C471  1  0.345370  0.169030  0.432030  1.0  -0.0134
  C  C472  1  0.382070  0.146230  0.457730  1.0  0.1429
  C  C473  1  0.354470  0.135530  0.492230  1.0  -0.1682
  C  C474  1  0.290070  0.147630  0.501030  1.0  0.0227
  C  C475  1  0.253370  0.170430  0.475330  1.0  0.316
  C  C476  1  0.280970  0.181130  0.440830  1.0  -0.1155
  C  C477  1  0.146170  0.196830  0.506330  1.0  0.0285
  C  C478  1  0.111070  0.242230  0.480530  1.0  -0.144
  C  C479  1  0.125670  0.217230  0.442730  1.0  -0.3359
  C  C480  1  0.061770  0.114030  0.505430  1.0  -0.338
  C  C481  1  0.467670  0.073730  0.468530  1.0  0.1237
  C  C482  1  0.526670  0.065430  0.443030  1.0  -0.1492
  C  C483  1  0.587070  0.153630  0.436830  1.0  -0.362
  C  C484  1  0.511370  0.150230  0.491430  1.0  -0.3805
  C  C485  1  0.207370  0.235630  0.608930  1.0  0.5933
  C  C486  1  0.211370  0.976930  0.605530  1.0  0.6944
  C  C487  1  0.272170  0.135130  0.539710  1.0  0.0308
  C  C488  1  0.256670  0.063930  0.556730  1.0  -0.1326
  C  C489  1  0.231370  0.051230  0.591530  1.0  -0.0603
  C  C490  1  0.221470  0.109730  0.609410  1.0  -0.0404
  C  C491  1  0.236970  0.180930  0.592330  1.0  -0.1207
  C  C492  1  0.262270  0.193630  0.557530  1.0  -0.1092
  C  C493  1  0.124230  0.694770  0.657870  1.0  0.7225
  C  C494  1  0.102630  0.613970  0.678130  1.0  -0.1653
  C  C495  1  0.119230  0.559170  0.660980  1.0  0.0119
  C  C496  1  0.105230  0.488270  0.677870  1.0  -0.181
  C  C497  1  0.074530  0.472170  0.711910  1.0  -0.1055
  C  C498  1  0.057930  0.526970  0.729070  1.0  0.0149
  C  C499  1  0.071930  0.597870  0.712170  1.0  -0.059
  C  C500  1  0.118830  0.426070  0.660170  1.0  0.7243
  C  C501  1  0.012030  0.502370  0.765370  1.0  -0.0134
  C  C502  1  0.048730  0.479570  0.791070  1.0  0.1422
  C  C503  1  0.021130  0.468870  0.825570  1.0  -0.1667
  C  C504  1  0.956730  0.480970  0.834370  1.0  0.0227
  C  C505  1  0.920030  0.503770  0.808670  1.0  0.316
  C  C506  1  0.947630  0.514470  0.774170  1.0  -0.118
  C  C507  1  0.812830  0.530170  0.839670  1.0  0.0285
  C  C508  1  0.777730  0.575570  0.813870  1.0  -0.144
  C  C509  1  0.792330  0.550570  0.776070  1.0  -0.3359
  C  C510  1  0.728430  0.447370  0.838770  1.0  -0.338
  C  C511  1  0.134330  0.407070  0.801870  1.0  0.1237
  C  C512  1  0.193330  0.398770  0.776370  1.0  -0.1492
  C  C513  1  0.253730  0.486970  0.770170  1.0  -0.362
  C  C514  1  0.178030  0.483570  0.824770  1.0  -0.3805
  C  C515  1  0.874030  0.568970  0.942270  1.0  0.5931
  C  C516  1  0.878030  0.310270  0.938870  1.0  0.6944
  C  C517  1  0.938830  0.468470  0.873050  1.0  0.0318
  C  C518  1  0.923330  0.397270  0.890070  1.0  -0.1326
  C  C519  1  0.898030  0.384570  0.924870  1.0  -0.0602
  C  C520  1  0.888130  0.443070  0.942750  1.0  -0.0404
  C  C521  1  0.903630  0.514270  0.925670  1.0  -0.1207
  C  C522  1  0.928930  0.526970  0.890870  1.0  -0.1092
  O  O523  1  0.962100  0.778600  0.962000  1.0  -0.5503
  O  O524  1  0.925200  0.702600  0.010100  1.0  -0.6252
  O  O525  1  0.226100  0.034600  0.962000  1.0  -0.6059
  O  O526  1  0.299100  0.074000  0.008300  1.0  -0.5911
  O  O527  1  0.162700  0.681900  0.151800  1.0  -0.361
  O  O528  1  0.219200  0.986000  0.111000  1.0  -0.4109
  O  O529  1  0.033900  0.591200  0.255100  1.0  -0.5826
  O  O530  1  0.117700  0.629100  0.306500  1.0  -0.5916
  O  O531  1  0.369500  0.886600  0.305200  1.0  -0.6178
  O  O532  1  0.408400  0.966200  0.257360  1.0  -0.619
  O  O533  1  0.628770  0.111930  0.295330  1.0  -0.5504
  O  O534  1  0.591870  0.035930  0.343430  1.0  -0.6252
  O  O535  1  0.892770  0.367930  0.295330  1.0  -0.6059
  O  O536  1  0.965770  0.407330  0.341630  1.0  -0.5911
  O  O537  1  0.829370  0.015230  0.485130  1.0  -0.361
  O  O538  1  0.885870  0.319330  0.444330  1.0  -0.4109
  O  O539  1  0.700570  0.924530  0.588430  1.0  -0.5826
  O  O540  1  0.784370  0.962430  0.639830  1.0  -0.5926
  O  O541  1  0.036170  0.219930  0.638530  1.0  -0.6179
  O  O542  1  0.075070  0.299530  0.590690  1.0  -0.6189
  O  O543  1  0.295430  0.445270  0.628670  1.0  -0.5505
  O  O544  1  0.258530  0.369270  0.676770  1.0  -0.6249
  O  O545  1  0.559430  0.701270  0.628670  1.0  -0.6057
  O  O546  1  0.632430  0.740670  0.674970  1.0  -0.5909
  O  O547  1  0.496030  0.348570  0.818470  1.0  -0.361
  O  O548  1  0.552530  0.652670  0.777670  1.0  -0.4109
  O  O549  1  0.367230  0.257870  0.921770  1.0  -0.5826
  O  O550  1  0.451030  0.295770  0.973170  1.0  -0.5926
  O  O551  1  0.702830  0.553270  0.971870  1.0  -0.6178
  O  O552  1  0.741730  0.632870  0.924030  1.0  -0.619
  O  O553  1  0.221400  0.183500  0.962000  1.0  -0.5472
  O  O554  1  0.297400  0.222600  0.010100  1.0  -0.6253
  O  O555  1  0.965400  0.191500  0.962000  1.0  -0.6058
  O  O556  1  0.926000  0.225100  0.008300  1.0  -0.5894
  O  O557  1  0.318100  0.480800  0.151800  1.0  -0.3624
  O  O558  1  0.014000  0.233200  0.111000  1.0  -0.4093
  O  O559  1  0.408800  0.442700  0.255100  1.0  -0.5844
  O  O560  1  0.370900  0.488600  0.306500  1.0  -0.5934
  O  O561  1  0.113400  0.482900  0.305200  1.0  -0.6144
  O  O562  1  0.033800  0.442200  0.257360  1.0  -0.6161
  O  O563  1  0.888070  0.516830  0.295330  1.0  -0.5472
  O  O564  1  0.964070  0.555930  0.343430  1.0  -0.6253
  O  O565  1  0.632070  0.524830  0.295330  1.0  -0.6058
  O  O566  1  0.592670  0.558430  0.341630  1.0  -0.5894
  O  O567  1  0.984770  0.814130  0.485130  1.0  -0.3624
  O  O568  1  0.680670  0.566530  0.444330  1.0  -0.4093
  O  O569  1  0.075470  0.776030  0.588430  1.0  -0.5844
  O  O570  1  0.037570  0.821930  0.639830  1.0  -0.5936
  O  O571  1  0.780070  0.816230  0.638530  1.0  -0.6145
  O  O572  1  0.700470  0.775530  0.590690  1.0  -0.6161
  O  O573  1  0.554730  0.850170  0.628670  1.0  -0.5472
  O  O574  1  0.630730  0.889270  0.676770  1.0  -0.625
  O  O575  1  0.298730  0.858170  0.628670  1.0  -0.6058
  O  O576  1  0.259330  0.891770  0.674970  1.0  -0.5892
  O  O577  1  0.651430  0.147470  0.818470  1.0  -0.3624
  O  O578  1  0.347330  0.899870  0.777670  1.0  -0.4093
  O  O579  1  0.742130  0.109370  0.921770  1.0  -0.5844
  O  O580  1  0.704230  0.155270  0.973170  1.0  -0.5934
  O  O581  1  0.446730  0.149570  0.971870  1.0  -0.6144
  O  O582  1  0.367130  0.108870  0.924030  1.0  -0.6161
  O  O583  1  0.816500  0.037900  0.962000  1.0  -0.5478
  O  O584  1  0.777400  0.074800  0.010100  1.0  -0.6258
  O  O585  1  0.808500  0.773900  0.962000  1.0  -0.6076
  O  O586  1  0.774900  0.700900  0.008300  1.0  -0.5903
  O  O587  1  0.519200  0.837300  0.151800  1.0  -0.36
  O  O588  1  0.766800  0.780800  0.111000  1.0  -0.4112
  O  O589  1  0.557300  0.966100  0.255100  1.0  -0.585
  O  O590  1  0.511400  0.882300  0.306500  1.0  -0.5946
  O  O591  1  0.517100  0.630500  0.305200  1.0  -0.6163
  O  O592  1  0.557800  0.591600  0.257360  1.0  -0.6174
  O  O593  1  0.483170  0.371230  0.295330  1.0  -0.5478
  O  O594  1  0.444070  0.408130  0.343430  1.0  -0.6258
  O  O595  1  0.475170  0.107230  0.295330  1.0  -0.6076
  O  O596  1  0.441570  0.034230  0.341630  1.0  -0.5903
  O  O597  1  0.185870  0.170630  0.485130  1.0  -0.36
  O  O598  1  0.433470  0.114130  0.444330  1.0  -0.4112
  O  O599  1  0.223970  0.299430  0.588430  1.0  -0.5851
  O  O600  1  0.178070  0.215630  0.639830  1.0  -0.5946
  O  O601  1  0.183770  0.963830  0.638530  1.0  -0.6167
  O  O602  1  0.224470  0.924930  0.590690  1.0  -0.6174
  O  O603  1  0.149830  0.704570  0.628670  1.0  -0.5478
  O  O604  1  0.110730  0.741470  0.676770  1.0  -0.6253
  O  O605  1  0.141830  0.440570  0.628670  1.0  -0.6078
  O  O606  1  0.108230  0.367570  0.674970  1.0  -0.59
  O  O607  1  0.852530  0.503970  0.818470  1.0  -0.36
  O  O608  1  0.100130  0.447470  0.777670  1.0  -0.4112
  O  O609  1  0.890630  0.632770  0.921770  1.0  -0.585
  O  O610  1  0.844730  0.548970  0.973170  1.0  -0.5946
  O  O611  1  0.850430  0.297170  0.971870  1.0  -0.6163
  O  O612  1  0.891130  0.258270  0.924030  1.0  -0.6174
