# generated using pymatgen
data_Cu2C3(SN)3
_symmetry_space_group_name_H-M   'P 1'
_cell_length_a   11.16400000
_cell_length_b   11.16400000
_cell_length_c   10.63800000
_cell_angle_alpha   90.00000000
_cell_angle_beta   90.00000000
_cell_angle_gamma   90.00000000
_symmetry_Int_Tables_number   1
_chemical_formula_structural   Cu2C3(SN)3
_chemical_formula_sum   'Cu8 C12 S12 N12'
_cell_volume   1325.86602365
_cell_formula_units_Z   4
loop_
 _symmetry_equiv_pos_site_id
 _symmetry_equiv_pos_as_xyz
  1  'x, y, z'
loop_
 _atom_site_type_symbol
 _atom_site_label
 _atom_site_symmetry_multiplicity
 _atom_site_fract_x
 _atom_site_fract_y
 _atom_site_fract_z
 _atom_site_occupancy
 _atom_site_charge
  Cu  Cu1  1  0.913990  0.086010  0.214820  1.0  0.409
  Cu  Cu2  1  0.585110  0.414890  0.055210  1.0  0.2469
  Cu  Cu3  1  0.086010  0.913990  0.214820  1.0  0.4101
  Cu  Cu4  1  0.414890  0.585110  0.055210  1.0  0.2463
  Cu  Cu5  1  0.913990  0.913990  0.714820  1.0  0.4098
  Cu  Cu6  1  0.585110  0.585110  0.555210  1.0  0.2466
  Cu  Cu7  1  0.086010  0.086010  0.714820  1.0  0.4093
  Cu  Cu8  1  0.414890  0.414890  0.555210  1.0  0.2468
  C  C9  1  0.771500  0.228500  0.016500  1.0  0.3498
  C  C10  1  0.228500  0.771500  0.016500  1.0  0.3493
  C  C11  1  0.771500  0.771500  0.516500  1.0  0.3498
  C  C12  1  0.228500  0.228500  0.516500  1.0  0.3493
  C  C13  1  0.113300  0.113300  0.001500  1.0  0.3136
  C  C14  1  0.886700  0.886700  0.001500  1.0  0.3135
  C  C15  1  0.886700  0.113300  0.501500  1.0  0.3131
  C  C16  1  0.113300  0.886700  0.501500  1.0  0.315
  C  C17  1  0.614200  0.614200  0.841700  1.0  0.2999
  C  C18  1  0.385800  0.385800  0.841700  1.0  0.3003
  C  C19  1  0.385800  0.614200  0.341700  1.0  0.3002
  C  C20  1  0.614200  0.385800  0.341700  1.0  0.3002
  S  S21  1  0.694740  0.305260  0.911070  1.0  -0.1969
  S  S22  1  0.305260  0.694740  0.911070  1.0  -0.1965
  S  S23  1  0.694740  0.694740  0.411070  1.0  -0.1964
  S  S24  1  0.305260  0.305260  0.411070  1.0  -0.1969
  S  S25  1  0.122520  0.122520  0.157490  1.0  -0.171
  S  S26  1  0.877480  0.877480  0.157490  1.0  -0.1716
  S  S27  1  0.877480  0.122520  0.657490  1.0  -0.1715
  S  S28  1  0.122520  0.877480  0.657490  1.0  -0.1715
  S  S29  1  0.624480  0.624480  0.997660  1.0  -0.1654
  S  S30  1  0.375520  0.375520  0.997660  1.0  -0.1652
  S  S31  1  0.375520  0.624480  0.497660  1.0  -0.1651
  S  S32  1  0.624480  0.375520  0.497660  1.0  -0.166
  N  N33  1  0.823400  0.176600  0.090200  1.0  -0.3527
  N  N34  1  0.176600  0.823400  0.090200  1.0  -0.3526
  N  N35  1  0.823400  0.823400  0.590200  1.0  -0.353
  N  N36  1  0.176600  0.176600  0.590200  1.0  -0.3527
  N  N37  1  0.109300  0.109300  0.893400  1.0  -0.344
  N  N38  1  0.890700  0.890700  0.893400  1.0  -0.3435
  N  N39  1  0.890700  0.109300  0.393400  1.0  -0.3464
  N  N40  1  0.109300  0.890700  0.393400  1.0  -0.346
  N  N41  1  0.608800  0.608800  0.734700  1.0  -0.3884
  N  N42  1  0.391200  0.391200  0.734700  1.0  -0.3885
  N  N43  1  0.391200  0.608800  0.234700  1.0  -0.3887
  N  N44  1  0.608800  0.391200  0.234700  1.0  -0.3882
