# generated using pymatgen
data_Zn2H14C31O10
_symmetry_space_group_name_H-M   'P 1'
_cell_length_a   18.83230000
_cell_length_b   18.83230000
_cell_length_c   38.49580000
_cell_angle_alpha   90.00000000
_cell_angle_beta   90.00000000
_cell_angle_gamma   120.00000000
_symmetry_Int_Tables_number   1
_chemical_formula_structural   Zn2H14C31O10
_chemical_formula_sum   'Zn18 H126 C279 O90'
_cell_volume   11823.62668041
_cell_formula_units_Z   9
loop_
 _symmetry_equiv_pos_site_id
 _symmetry_equiv_pos_as_xyz
  1  'x, y, z'
loop_
 _atom_site_type_symbol
 _atom_site_label
 _atom_site_symmetry_multiplicity
 _atom_site_fract_x
 _atom_site_fract_y
 _atom_site_fract_z
 _atom_site_occupancy
 _atom_site_charge
  Zn  Zn1  1  0.807500  0.615320  0.999400  1.0  1.1163
  Zn  Zn2  1  0.859160  0.718300  0.935310  1.0  1.0974
  Zn  Zn3  1  0.474170  0.948650  0.332730  1.0  1.1163
  Zn  Zn4  1  0.525830  0.051630  0.268640  1.0  1.0974
  Zn  Zn5  1  0.140830  0.281990  0.666070  1.0  1.1111
  Zn  Zn6  1  0.192490  0.384970  0.601980  1.0  1.1173
  Zn  Zn7  1  0.384680  0.192180  0.999400  1.0  1.1101
  Zn  Zn8  1  0.281700  0.140860  0.935310  1.0  1.0923
  Zn  Zn9  1  0.051350  0.525510  0.332730  1.0  1.1101
  Zn  Zn10  1  0.948370  0.474190  0.268640  1.0  1.0923
  Zn  Zn11  1  0.718010  0.858850  0.666070  1.0  1.1104
  Zn  Zn12  1  0.615030  0.807530  0.601980  1.0  1.1102
  Zn  Zn13  1  0.807820  0.192500  0.999400  1.0  1.111
  Zn  Zn14  1  0.859140  0.140840  0.935310  1.0  1.0915
  Zn  Zn15  1  0.474490  0.525830  0.332730  1.0  1.111
  Zn  Zn16  1  0.525810  0.474170  0.268640  1.0  1.1189
  Zn  Zn17  1  0.141150  0.859170  0.666070  1.0  1.1162
  Zn  Zn18  1  0.192470  0.807510  0.601980  1.0  1.0957
  H  H19  1  0.094000  0.904600  0.973300  1.0  0.1304
  H  H20  1  0.242000  0.972900  0.057900  1.0  0.119
  H  H21  1  0.029400  0.755100  0.057300  1.0  0.1284
  H  H22  1  0.209000  0.927800  0.173500  1.0  0.1317
  H  H23  1  0.144200  0.726200  0.088800  1.0  0.141
  H  H24  1  0.203800  0.598400  0.146000  1.0  0.1196
  H  H25  1  0.221900  0.644100  0.182900  1.0  0.1393
  H  H26  1  0.066500  0.558000  0.187800  1.0  0.1191
  H  H27  1  0.287400  0.066300  0.157300  1.0  0.1
  H  H28  1  0.189500  0.016700  0.162600  1.0  0.1287
  H  H29  1  0.176200  0.094000  0.116600  1.0  0.1477
  H  H30  1  0.308300  0.908900  0.211400  1.0  0.2186
  H  H31  1  0.230500  0.768700  0.298300  1.0  0.1372
  H  H32  1  0.089500  0.697500  0.211600  1.0  0.1305
  H  H33  1  0.760670  0.237930  0.306630  1.0  0.1304
  H  H34  1  0.908670  0.306230  0.391230  1.0  0.119
  H  H35  1  0.696070  0.088430  0.390630  1.0  0.1284
  H  H36  1  0.875670  0.261130  0.506830  1.0  0.1317
  H  H37  1  0.810870  0.059530  0.422130  1.0  0.141
  H  H38  1  0.870470  0.931730  0.479330  1.0  0.1196
  H  H39  1  0.888570  0.977430  0.516230  1.0  0.1393
  H  H40  1  0.733170  0.891330  0.521130  1.0  0.1191
  H  H41  1  0.954070  0.399630  0.490630  1.0  0.1
  H  H42  1  0.856170  0.350030  0.495930  1.0  0.1263
  H  H43  1  0.842870  0.427330  0.449930  1.0  0.1477
  H  H44  1  0.974970  0.242230  0.544730  1.0  0.2186
  H  H45  1  0.897170  0.102030  0.631630  1.0  0.1373
  H  H46  1  0.756170  0.030830  0.544930  1.0  0.1305
  H  H47  1  0.427330  0.571270  0.639970  1.0  0.1304
  H  H48  1  0.575330  0.639570  0.724570  1.0  0.119
  H  H49  1  0.362730  0.421770  0.723970  1.0  0.1284
  H  H50  1  0.542330  0.594470  0.840170  1.0  0.1317
  H  H51  1  0.477530  0.392870  0.755470  1.0  0.1413
  H  H52  1  0.537130  0.265070  0.812670  1.0  0.1196
  H  H53  1  0.555230  0.310770  0.849570  1.0  0.1393
  H  H54  1  0.399830  0.224670  0.854470  1.0  0.1191
  H  H55  1  0.620730  0.732970  0.823970  1.0  0.1
  H  H56  1  0.522830  0.683370  0.829270  1.0  0.1287
  H  H57  1  0.509530  0.760670  0.783270  1.0  0.1477
  H  H58  1  0.641630  0.575570  0.878070  1.0  0.2186
  H  H59  1  0.563830  0.435370  0.964970  1.0  0.1372
  H  H60  1  0.422830  0.364170  0.878270  1.0  0.1305
  H  H61  1  0.095400  0.189400  0.973300  1.0  0.1302
  H  H62  1  0.027100  0.269100  0.057900  1.0  0.119
  H  H63  1  0.244900  0.274300  0.057300  1.0  0.1272
  H  H64  1  0.072200  0.281200  0.173500  1.0  0.1318
  H  H65  1  0.273800  0.418000  0.088800  1.0  0.141
  H  H66  1  0.401600  0.605400  0.146000  1.0  0.1202
  H  H67  1  0.355900  0.577800  0.182900  1.0  0.1394
  H  H68  1  0.442000  0.508500  0.187800  1.0  0.1193
  H  H69  1  0.933700  0.221100  0.157300  1.0  0.1046
  H  H70  1  0.983300  0.172800  0.162600  1.0  0.1259
  H  H71  1  0.906000  0.082200  0.116600  1.0  0.1485
  H  H72  1  0.091100  0.399400  0.211400  1.0  0.2206
  H  H73  1  0.231300  0.461800  0.298300  1.0  0.1369
  H  H74  1  0.302500  0.392000  0.211600  1.0  0.1315
  H  H75  1  0.762070  0.522730  0.306630  1.0  0.1302
  H  H76  1  0.693770  0.602430  0.391230  1.0  0.119
  H  H77  1  0.911570  0.607630  0.390630  1.0  0.1272
  H  H78  1  0.738870  0.614530  0.506830  1.0  0.1318
  H  H79  1  0.940470  0.751330  0.422130  1.0  0.141
  H  H80  1  0.068270  0.938730  0.479330  1.0  0.1202
  H  H81  1  0.022570  0.911130  0.516230  1.0  0.1394
  H  H82  1  0.108670  0.841830  0.521130  1.0  0.1193
  H  H83  1  0.600370  0.554430  0.490630  1.0  0.1046
  H  H84  1  0.649970  0.506130  0.495930  1.0  0.128
  H  H85  1  0.572670  0.415530  0.449930  1.0  0.1485
  H  H86  1  0.757770  0.732730  0.544730  1.0  0.2206
  H  H87  1  0.897970  0.795130  0.631630  1.0  0.1367
  H  H88  1  0.969170  0.725330  0.544930  1.0  0.1315
  H  H89  1  0.428730  0.856070  0.639970  1.0  0.1302
  H  H90  1  0.360430  0.935770  0.724570  1.0  0.119
  H  H91  1  0.578230  0.940970  0.723970  1.0  0.1272
  H  H92  1  0.405530  0.947870  0.840170  1.0  0.1318
  H  H93  1  0.607130  0.084670  0.755470  1.0  0.1409
  H  H94  1  0.734930  0.272070  0.812670  1.0  0.1202
  H  H95  1  0.689230  0.244470  0.849570  1.0  0.1394
  H  H96  1  0.775330  0.175170  0.854470  1.0  0.1193
  H  H97  1  0.267030  0.887770  0.823970  1.0  0.1046
  H  H98  1  0.316630  0.839470  0.829270  1.0  0.1259
  H  H99  1  0.239330  0.748870  0.783270  1.0  0.1485
  H  H100  1  0.424430  0.066070  0.878070  1.0  0.2206
  H  H101  1  0.564630  0.128470  0.964970  1.0  0.1369
  H  H102  1  0.635830  0.058670  0.878270  1.0  0.1315
  H  H103  1  0.810600  0.906000  0.973300  1.0  0.1304
  H  H104  1  0.730900  0.758000  0.057900  1.0  0.1197
  H  H105  1  0.725700  0.970600  0.057300  1.0  0.1271
  H  H106  1  0.718800  0.791000  0.173500  1.0  0.132
  H  H107  1  0.582000  0.855800  0.088800  1.0  0.141
  H  H108  1  0.394600  0.796200  0.146000  1.0  0.1201
  H  H109  1  0.422200  0.778100  0.182900  1.0  0.1393
  H  H110  1  0.491500  0.933500  0.187800  1.0  0.1195
  H  H111  1  0.778900  0.712600  0.157300  1.0  0.1021
  H  H112  1  0.827200  0.810500  0.162600  1.0  0.1234
  H  H113  1  0.917800  0.823800  0.116600  1.0  0.1489
  H  H114  1  0.600600  0.691700  0.211400  1.0  0.2207
  H  H115  1  0.538200  0.769500  0.298300  1.0  0.1372
  H  H116  1  0.608000  0.910500  0.211600  1.0  0.1312
  H  H117  1  0.477270  0.239330  0.306630  1.0  0.1304
  H  H118  1  0.397570  0.091330  0.391230  1.0  0.1197
  H  H119  1  0.392370  0.303930  0.390630  1.0  0.1271
  H  H120  1  0.385470  0.124330  0.506830  1.0  0.132
  H  H121  1  0.248670  0.189130  0.422130  1.0  0.141
  H  H122  1  0.061270  0.129530  0.479330  1.0  0.1201
  H  H123  1  0.088870  0.111430  0.516230  1.0  0.1393
  H  H124  1  0.158170  0.266830  0.521130  1.0  0.1194
  H  H125  1  0.445570  0.045930  0.490630  1.0  0.1021
  H  H126  1  0.493870  0.143830  0.495930  1.0  0.1229
  H  H127  1  0.584470  0.157130  0.449930  1.0  0.1489
  H  H128  1  0.267270  0.025030  0.544730  1.0  0.2207
  H  H129  1  0.204870  0.102830  0.631630  1.0  0.1372
  H  H130  1  0.274670  0.243830  0.544930  1.0  0.1312
  H  H131  1  0.143930  0.572670  0.639970  1.0  0.1304
  H  H132  1  0.064230  0.424670  0.724570  1.0  0.1197
  H  H133  1  0.059030  0.637270  0.723970  1.0  0.1271
  H  H134  1  0.052130  0.457670  0.840170  1.0  0.132
  H  H135  1  0.915330  0.522470  0.755470  1.0  0.141
  H  H136  1  0.727930  0.462870  0.812670  1.0  0.1201
  H  H137  1  0.755530  0.444770  0.849570  1.0  0.1393
  H  H138  1  0.824830  0.600170  0.854470  1.0  0.1195
  H  H139  1  0.112230  0.379270  0.823970  1.0  0.1021
  H  H140  1  0.160530  0.477170  0.829270  1.0  0.1234
  H  H141  1  0.251130  0.490470  0.783270  1.0  0.1489
  H  H142  1  0.933930  0.358370  0.878070  1.0  0.2207
  H  H143  1  0.871530  0.436170  0.964970  1.0  0.1372
  H  H144  1  0.941330  0.577170  0.878270  1.0  0.1312
  C  C145  1  0.973700  0.759300  0.995500  1.0  0.7416
  C  C146  1  0.050400  0.820900  0.012650  1.0  -0.1843
  C  C147  1  0.105300  0.893600  0.996130  1.0  0.0243
  C  C148  1  0.176700  0.950200  0.013000  1.0  -0.0924
  C  C149  1  0.193200  0.934200  0.046300  1.0  -0.0728
  C  C150  1  0.138300  0.861500  0.062860  1.0  0.0267
  C  C151  1  0.066900  0.804800  0.046020  1.0  -0.037
  C  C152  1  0.243400  0.033100  0.997400  1.0  0.5033
  C  C153  1  0.167200  0.842900  0.096700  1.0  0.0167
  C  C154  1  0.186400  0.902800  0.121900  1.0  0.0464
  C  C155  1  0.195800  0.886900  0.156300  1.0  -0.1375
  C  C156  1  0.186000  0.811100  0.165600  1.0  0.0834
  C  C157  1  0.166700  0.751300  0.140400  1.0  0.1331
  C  C158  1  0.157300  0.767100  0.106000  1.0  -0.0367
  C  C159  1  0.179600  0.615300  0.164800  1.0  -0.0228
  C  C160  1  0.107800  0.543200  0.179700  1.0  -0.1
  C  C161  1  0.069000  0.472700  0.152700  1.0  -0.0841
  C  C162  1  0.134900  0.507900  0.210500  1.0  -0.138
  C  C163  1  0.144900  0.452500  0.149500  1.0  -0.0957
  C  C164  1  0.234000  0.046500  0.145500  1.0  0.1186
  C  C165  1  0.228600  0.117200  0.129900  1.0  -0.1083
  C  C166  1  0.233700  0.185100  0.153500  1.0  -0.0051
  C  C167  1  0.298600  0.155300  0.104200  1.0  -0.0287
  C  C168  1  0.096600  0.645600  0.275900  1.0  0.6578
  C  C169  1  0.358200  0.900900  0.274600  1.0  0.6951
  C  C170  1  0.197000  0.805300  0.206070  1.0  0.062
  C  C171  1  0.268200  0.861300  0.223210  1.0  -0.1175
  C  C172  1  0.280700  0.847600  0.257500  1.0  -0.0931
  C  C173  1  0.222000  0.778000  0.274800  1.0  -0.0796
  C  C174  1  0.150700  0.722100  0.257600  1.0  -0.1374
  C  C175  1  0.138200  0.735700  0.223300  1.0  -0.0512
  C  C176  1  0.640370  0.092630  0.328830  1.0  0.7416
  C  C177  1  0.717070  0.154230  0.345980  1.0  -0.1843
  C  C178  1  0.771970  0.226930  0.329460  1.0  0.0243
  C  C179  1  0.843370  0.283530  0.346330  1.0  -0.0924
  C  C180  1  0.859870  0.267530  0.379630  1.0  -0.0728
  C  C181  1  0.804970  0.194830  0.396190  1.0  0.0267
  C  C182  1  0.733570  0.138130  0.379350  1.0  -0.037
  C  C183  1  0.910070  0.366430  0.330730  1.0  0.5033
  C  C184  1  0.833870  0.176230  0.430030  1.0  0.0167
  C  C185  1  0.853070  0.236130  0.455230  1.0  0.0464
  C  C186  1  0.862470  0.220230  0.489630  1.0  -0.1375
  C  C187  1  0.852670  0.144430  0.498930  1.0  0.0834
  C  C188  1  0.833370  0.084630  0.473730  1.0  0.1331
  C  C189  1  0.823970  0.100430  0.439330  1.0  -0.0367
  C  C190  1  0.846270  0.948630  0.498130  1.0  -0.0229
  C  C191  1  0.774470  0.876530  0.513030  1.0  -0.1001
  C  C192  1  0.735670  0.806030  0.486030  1.0  -0.0841
  C  C193  1  0.801570  0.841230  0.543830  1.0  -0.138
  C  C194  1  0.811570  0.785830  0.482830  1.0  -0.0957
  C  C195  1  0.900670  0.379830  0.478830  1.0  0.1186
  C  C196  1  0.895270  0.450530  0.463230  1.0  -0.1083
  C  C197  1  0.900370  0.518430  0.486830  1.0  -0.0051
  C  C198  1  0.965270  0.488630  0.437530  1.0  -0.0311
  C  C199  1  0.763270  0.978930  0.609230  1.0  0.6578
  C  C200  1  0.024870  0.234230  0.607930  1.0  0.6951
  C  C201  1  0.863670  0.138630  0.539400  1.0  0.062
  C  C202  1  0.934870  0.194630  0.556540  1.0  -0.1176
  C  C203  1  0.947370  0.180930  0.590830  1.0  -0.0931
  C  C204  1  0.888670  0.111330  0.608130  1.0  -0.0796
  C  C205  1  0.817370  0.055430  0.590930  1.0  -0.1374
  C  C206  1  0.804870  0.069030  0.556630  1.0  -0.0512
  C  C207  1  0.307030  0.425970  0.662170  1.0  0.7417
  C  C208  1  0.383730  0.487570  0.679320  1.0  -0.1843
  C  C209  1  0.438630  0.560270  0.662800  1.0  0.0243
  C  C210  1  0.510030  0.616870  0.679670  1.0  -0.0924
  C  C211  1  0.526530  0.600870  0.712970  1.0  -0.0728
  C  C212  1  0.471630  0.528170  0.729530  1.0  0.0267
  C  C213  1  0.400230  0.471470  0.712690  1.0  -0.037
  C  C214  1  0.576730  0.699770  0.664070  1.0  0.5033
  C  C215  1  0.500530  0.509570  0.763370  1.0  0.0167
  C  C216  1  0.519730  0.569470  0.788570  1.0  0.0464
  C  C217  1  0.529130  0.553570  0.822970  1.0  -0.1375
  C  C218  1  0.519330  0.477770  0.832270  1.0  0.0834
  C  C219  1  0.500030  0.417970  0.807070  1.0  0.1331
  C  C220  1  0.490630  0.433770  0.772670  1.0  -0.0367
  C  C221  1  0.512930  0.281970  0.831470  1.0  -0.0228
  C  C222  1  0.441130  0.209870  0.846370  1.0  -0.1
  C  C223  1  0.402330  0.139370  0.819370  1.0  -0.0841
  C  C224  1  0.468230  0.174570  0.877170  1.0  -0.138
  C  C225  1  0.478230  0.119170  0.816170  1.0  -0.0957
  C  C226  1  0.567330  0.713170  0.812170  1.0  0.1186
  C  C227  1  0.561930  0.783870  0.796570  1.0  -0.1083
  C  C228  1  0.567030  0.851770  0.820170  1.0  -0.0051
  C  C229  1  0.631930  0.821970  0.770870  1.0  -0.0289
  C  C230  1  0.429930  0.312270  0.942570  1.0  0.6578
  C  C231  1  0.691530  0.567570  0.941270  1.0  0.6951
  C  C232  1  0.530330  0.471970  0.872740  1.0  0.062
  C  C233  1  0.601530  0.527970  0.889880  1.0  -0.1175
  C  C234  1  0.614030  0.514270  0.924170  1.0  -0.0931
  C  C235  1  0.555330  0.444670  0.941470  1.0  -0.0796
  C  C236  1  0.484030  0.388770  0.924270  1.0  -0.1374
  C  C237  1  0.471530  0.402370  0.889970  1.0  -0.0512
  C  C238  1  0.240700  0.214400  0.995500  1.0  0.7412
  C  C239  1  0.179100  0.229500  0.012650  1.0  -0.1824
  C  C240  1  0.106400  0.211700  0.996130  1.0  0.0241
  C  C241  1  0.049800  0.226500  0.013000  1.0  -0.092
  C  C242  1  0.065800  0.259000  0.046300  1.0  -0.0722
  C  C243  1  0.138500  0.276800  0.062860  1.0  0.0264
  C  C244  1  0.195200  0.262100  0.046020  1.0  -0.0383
  C  C245  1  0.966900  0.210300  0.997400  1.0  0.5025
  C  C246  1  0.157100  0.324300  0.096700  1.0  0.019
  C  C247  1  0.097200  0.283600  0.121900  1.0  0.0464
  C  C248  1  0.113100  0.308900  0.156300  1.0  -0.1398
  C  C249  1  0.188900  0.374900  0.165600  1.0  0.0882
  C  C250  1  0.248700  0.415400  0.140400  1.0  0.1323
  C  C251  1  0.232900  0.390200  0.106000  1.0  -0.0328
  C  C252  1  0.384700  0.564300  0.164800  1.0  -0.0219
  C  C253  1  0.456800  0.564600  0.179700  1.0  -0.0987
  C  C254  1  0.527300  0.596300  0.152700  1.0  -0.0855
  C  C255  1  0.492100  0.627000  0.210500  1.0  -0.1348
  C  C256  1  0.547500  0.692400  0.149500  1.0  -0.0976
  C  C257  1  0.953500  0.187500  0.145500  1.0  0.1207
  C  C258  1  0.882800  0.111400  0.129900  1.0  -0.1083
  C  C259  1  0.814900  0.048600  0.153500  1.0  -0.0053
  C  C260  1  0.844700  0.143300  0.104200  1.0  -0.0265
  C  C261  1  0.354400  0.451000  0.275900  1.0  0.6585
  C  C262  1  0.099100  0.457300  0.274600  1.0  0.6878
  C  C263  1  0.194700  0.391700  0.206070  1.0  0.0634
  C  C264  1  0.138700  0.406900  0.223210  1.0  -0.1165
  C  C265  1  0.152400  0.433100  0.257500  1.0  -0.0896
  C  C266  1  0.222000  0.444000  0.274800  1.0  -0.0792
  C  C267  1  0.277900  0.428600  0.257600  1.0  -0.1367
  C  C268  1  0.264300  0.402500  0.223300  1.0  -0.0507
  C  C269  1  0.907370  0.547730  0.328830  1.0  0.7412
  C  C270  1  0.845770  0.562830  0.345980  1.0  -0.1824
  C  C271  1  0.773070  0.545030  0.329460  1.0  0.0241
  C  C272  1  0.716470  0.559830  0.346330  1.0  -0.092
  C  C273  1  0.732470  0.592330  0.379630  1.0  -0.0722
  C  C274  1  0.805170  0.610130  0.396190  1.0  0.0264
  C  C275  1  0.861870  0.595430  0.379350  1.0  -0.0383
  C  C276  1  0.633570  0.543630  0.330730  1.0  0.5025
  C  C277  1  0.823770  0.657630  0.430030  1.0  0.019
  C  C278  1  0.763870  0.616930  0.455230  1.0  0.0464
  C  C279  1  0.779770  0.642230  0.489630  1.0  -0.1398
  C  C280  1  0.855570  0.708230  0.498930  1.0  0.0882
  C  C281  1  0.915370  0.748730  0.473730  1.0  0.1323
  C  C282  1  0.899570  0.723530  0.439330  1.0  -0.0328
  C  C283  1  0.051370  0.897630  0.498130  1.0  -0.0219
  C  C284  1  0.123470  0.897930  0.513030  1.0  -0.0987
  C  C285  1  0.193970  0.929630  0.486030  1.0  -0.0855
  C  C286  1  0.158770  0.960330  0.543830  1.0  -0.1348
  C  C287  1  0.214170  0.025730  0.482830  1.0  -0.0976
  C  C288  1  0.620170  0.520830  0.478830  1.0  0.1207
  C  C289  1  0.549470  0.444730  0.463230  1.0  -0.1083
  C  C290  1  0.481570  0.381930  0.486830  1.0  -0.0053
  C  C291  1  0.511370  0.476630  0.437530  1.0  -0.0243
  C  C292  1  0.021070  0.784330  0.609230  1.0  0.6585
  C  C293  1  0.765770  0.790630  0.607930  1.0  0.6878
  C  C294  1  0.861370  0.725030  0.539400  1.0  0.0634
  C  C295  1  0.805370  0.740230  0.556540  1.0  -0.1165
  C  C296  1  0.819070  0.766430  0.590830  1.0  -0.0896
  C  C297  1  0.888670  0.777330  0.608130  1.0  -0.0792
  C  C298  1  0.944570  0.761930  0.590930  1.0  -0.1367
  C  C299  1  0.930970  0.735830  0.556630  1.0  -0.0507
  C  C300  1  0.574030  0.881070  0.662170  1.0  0.7411
  C  C301  1  0.512430  0.896170  0.679320  1.0  -0.1824
  C  C302  1  0.439730  0.878370  0.662800  1.0  0.0241
  C  C303  1  0.383130  0.893170  0.679670  1.0  -0.092
  C  C304  1  0.399130  0.925670  0.712970  1.0  -0.0722
  C  C305  1  0.471830  0.943470  0.729530  1.0  0.0264
  C  C306  1  0.528530  0.928770  0.712690  1.0  -0.0383
  C  C307  1  0.300230  0.876970  0.664070  1.0  0.5025
  C  C308  1  0.490430  0.990970  0.763370  1.0  0.019
  C  C309  1  0.430530  0.950270  0.788570  1.0  0.0464
  C  C310  1  0.446430  0.975570  0.822970  1.0  -0.1398
  C  C311  1  0.522230  0.041570  0.832270  1.0  0.0882
  C  C312  1  0.582030  0.082070  0.807070  1.0  0.1323
  C  C313  1  0.566230  0.056870  0.772670  1.0  -0.0328
  C  C314  1  0.718030  0.230970  0.831470  1.0  -0.0219
  C  C315  1  0.790130  0.231270  0.846370  1.0  -0.0987
  C  C316  1  0.860630  0.262970  0.819370  1.0  -0.0855
  C  C317  1  0.825430  0.293670  0.877170  1.0  -0.1348
  C  C318  1  0.880830  0.359070  0.816170  1.0  -0.0976
  C  C319  1  0.286830  0.854170  0.812170  1.0  0.1207
  C  C320  1  0.216130  0.778070  0.796570  1.0  -0.1083
  C  C321  1  0.148230  0.715270  0.820170  1.0  -0.0053
  C  C322  1  0.178030  0.809970  0.770870  1.0  -0.0265
  C  C323  1  0.687730  0.117670  0.942570  1.0  0.6585
  C  C324  1  0.432430  0.123970  0.941270  1.0  0.6878
  C  C325  1  0.528030  0.058370  0.872740  1.0  0.0634
  C  C326  1  0.472030  0.073570  0.889880  1.0  -0.1165
  C  C327  1  0.485730  0.099770  0.924170  1.0  -0.0896
  C  C328  1  0.555330  0.110670  0.941470  1.0  -0.0792
  C  C329  1  0.611230  0.095270  0.924270  1.0  -0.1367
  C  C330  1  0.597630  0.069170  0.889970  1.0  -0.0507
  C  C331  1  0.785600  0.026300  0.995500  1.0  0.7418
  C  C332  1  0.770500  0.949600  0.012650  1.0  -0.1835
  C  C333  1  0.788300  0.894700  0.996130  1.0  0.0241
  C  C334  1  0.773500  0.823300  0.013000  1.0  -0.0912
  C  C335  1  0.741000  0.806800  0.046300  1.0  -0.0714
  C  C336  1  0.723200  0.861700  0.062860  1.0  0.025
  C  C337  1  0.737900  0.933100  0.046020  1.0  -0.038
  C  C338  1  0.789700  0.756600  0.997400  1.0  0.5028
  C  C339  1  0.675700  0.832800  0.096700  1.0  0.0161
  C  C340  1  0.716400  0.813600  0.121900  1.0  0.0462
  C  C341  1  0.691100  0.804200  0.156300  1.0  -0.1373
  C  C342  1  0.625100  0.814000  0.165600  1.0  0.0869
  C  C343  1  0.584600  0.833300  0.140400  1.0  0.1341
  C  C344  1  0.609800  0.842700  0.106000  1.0  -0.0341
  C  C345  1  0.435700  0.820400  0.164800  1.0  -0.0229
  C  C346  1  0.435400  0.892200  0.179700  1.0  -0.0984
  C  C347  1  0.403700  0.931000  0.152700  1.0  -0.0873
  C  C348  1  0.373000  0.865100  0.210500  1.0  -0.1365
  C  C349  1  0.307600  0.855100  0.149500  1.0  -0.0968
  C  C350  1  0.812500  0.766000  0.145500  1.0  0.121
  C  C351  1  0.888600  0.771400  0.129900  1.0  -0.1073
  C  C352  1  0.951400  0.766300  0.153500  1.0  -0.0041
  C  C353  1  0.856700  0.701400  0.104200  1.0  -0.0308
  C  C354  1  0.549000  0.903400  0.275900  1.0  0.658
  C  C355  1  0.542700  0.641800  0.274600  1.0  0.6886
  C  C356  1  0.608300  0.803000  0.206070  1.0  0.0629
  C  C357  1  0.593100  0.731800  0.223210  1.0  -0.1145
  C  C358  1  0.566900  0.719300  0.257500  1.0  -0.0913
  C  C359  1  0.556000  0.778000  0.274800  1.0  -0.08
  C  C360  1  0.571400  0.849300  0.257600  1.0  -0.1384
  C  C361  1  0.597500  0.861800  0.223300  1.0  -0.0526
  C  C362  1  0.452270  0.359630  0.328830  1.0  0.7418
  C  C363  1  0.437170  0.282930  0.345980  1.0  -0.1835
  C  C364  1  0.454970  0.228030  0.329460  1.0  0.0241
  C  C365  1  0.440170  0.156630  0.346330  1.0  -0.0912
  C  C366  1  0.407670  0.140130  0.379630  1.0  -0.0714
  C  C367  1  0.389870  0.195030  0.396190  1.0  0.025
  C  C368  1  0.404570  0.266430  0.379350  1.0  -0.038
  C  C369  1  0.456370  0.089930  0.330730  1.0  0.5028
  C  C370  1  0.342370  0.166130  0.430030  1.0  0.0161
  C  C371  1  0.383070  0.146930  0.455230  1.0  0.0462
  C  C372  1  0.357770  0.137530  0.489630  1.0  -0.1373
  C  C373  1  0.291770  0.147330  0.498930  1.0  0.0869
  C  C374  1  0.251270  0.166630  0.473730  1.0  0.1341
  C  C375  1  0.276470  0.176030  0.439330  1.0  -0.0341
  C  C376  1  0.102370  0.153730  0.498130  1.0  -0.0229
  C  C377  1  0.102070  0.225530  0.513030  1.0  -0.0983
  C  C378  1  0.070370  0.264330  0.486030  1.0  -0.0873
  C  C379  1  0.039670  0.198430  0.543830  1.0  -0.1365
  C  C380  1  0.974270  0.188430  0.482830  1.0  -0.0968
  C  C381  1  0.479170  0.099330  0.478830  1.0  0.121
  C  C382  1  0.555270  0.104730  0.463230  1.0  -0.1073
  C  C383  1  0.618070  0.099630  0.486830  1.0  -0.0041
  C  C384  1  0.523370  0.034730  0.437530  1.0  -0.0296
  C  C385  1  0.215670  0.236730  0.609230  1.0  0.658
  C  C386  1  0.209370  0.975130  0.607930  1.0  0.6886
  C  C387  1  0.274970  0.136330  0.539400  1.0  0.0629
  C  C388  1  0.259770  0.065130  0.556540  1.0  -0.1145
  C  C389  1  0.233570  0.052630  0.590830  1.0  -0.0913
  C  C390  1  0.222670  0.111330  0.608130  1.0  -0.08
  C  C391  1  0.238070  0.182630  0.590930  1.0  -0.1389
  C  C392  1  0.264170  0.195130  0.556630  1.0  -0.0526
  C  C393  1  0.118930  0.692970  0.662170  1.0  0.7418
  C  C394  1  0.103830  0.616270  0.679320  1.0  -0.1835
  C  C395  1  0.121630  0.561370  0.662800  1.0  0.0241
  C  C396  1  0.106830  0.489970  0.679670  1.0  -0.0912
  C  C397  1  0.074330  0.473470  0.712970  1.0  -0.0714
  C  C398  1  0.056530  0.528370  0.729530  1.0  0.025
  C  C399  1  0.071230  0.599770  0.712690  1.0  -0.038
  C  C400  1  0.123030  0.423270  0.664070  1.0  0.5028
  C  C401  1  0.009030  0.499470  0.763370  1.0  0.0161
  C  C402  1  0.049730  0.480270  0.788570  1.0  0.0462
  C  C403  1  0.024430  0.470870  0.822970  1.0  -0.1373
  C  C404  1  0.958430  0.480670  0.832270  1.0  0.0869
  C  C405  1  0.917930  0.499970  0.807070  1.0  0.1341
  C  C406  1  0.943130  0.509370  0.772670  1.0  -0.0341
  C  C407  1  0.769030  0.487070  0.831470  1.0  -0.0229
  C  C408  1  0.768730  0.558870  0.846370  1.0  -0.0984
  C  C409  1  0.737030  0.597670  0.819370  1.0  -0.0873
  C  C410  1  0.706330  0.531770  0.877170  1.0  -0.1365
  C  C411  1  0.640930  0.521770  0.816170  1.0  -0.0968
  C  C412  1  0.145830  0.432670  0.812170  1.0  0.121
  C  C413  1  0.221930  0.438070  0.796570  1.0  -0.1073
  C  C414  1  0.284730  0.432970  0.820170  1.0  -0.0041
  C  C415  1  0.190030  0.368070  0.770870  1.0  -0.0308
  C  C416  1  0.882330  0.570070  0.942570  1.0  0.658
  C  C417  1  0.876030  0.308470  0.941270  1.0  0.6886
  C  C418  1  0.941630  0.469670  0.872740  1.0  0.0629
  C  C419  1  0.926430  0.398470  0.889880  1.0  -0.1145
  C  C420  1  0.900230  0.385970  0.924170  1.0  -0.0913
  C  C421  1  0.889330  0.444670  0.941470  1.0  -0.08
  C  C422  1  0.904730  0.515970  0.924270  1.0  -0.1384
  C  C423  1  0.930830  0.528470  0.889970  1.0  -0.0526
  O  O424  1  0.966300  0.775900  0.964900  1.0  -0.5926
  O  O425  1  0.925700  0.695200  0.010700  1.0  -0.5781
  O  O426  1  0.221500  0.039500  0.962600  1.0  -0.5673
  O  O427  1  0.310900  0.081400  0.012300  1.0  -0.5864
  O  O428  1  0.150100  0.670800  0.150700  1.0  -0.6092
  O  O429  1  0.225400  0.993100  0.116000  1.0  -0.3445
  O  O430  1  0.034000  0.591400  0.257610  1.0  -0.5968
  O  O431  1  0.111700  0.633700  0.303000  1.0  -0.5603
  O  O432  1  0.369000  0.886500  0.304900  1.0  -0.5806
  O  O433  1  0.410300  0.965100  0.256700  1.0  -0.5831
  O  O434  1  0.632970  0.109230  0.298230  1.0  -0.5921
  O  O435  1  0.592370  0.028530  0.344030  1.0  -0.5781
  O  O436  1  0.888170  0.372830  0.295930  1.0  -0.5673
  O  O437  1  0.977570  0.414730  0.345630  1.0  -0.5864
  O  O438  1  0.816770  0.004130  0.484030  1.0  -0.6092
  O  O439  1  0.892070  0.326430  0.449330  1.0  -0.3445
  O  O440  1  0.700670  0.924730  0.590940  1.0  -0.5968
  O  O441  1  0.778370  0.967030  0.636330  1.0  -0.5603
  O  O442  1  0.035670  0.219830  0.638230  1.0  -0.5812
  O  O443  1  0.076970  0.298430  0.590030  1.0  -0.5831
  O  O444  1  0.299630  0.442570  0.631570  1.0  -0.5921
  O  O445  1  0.259030  0.361870  0.677370  1.0  -0.5781
  O  O446  1  0.554830  0.706170  0.629270  1.0  -0.5673
  O  O447  1  0.644230  0.748070  0.678970  1.0  -0.5864
  O  O448  1  0.483430  0.337470  0.817370  1.0  -0.6092
  O  O449  1  0.558730  0.659770  0.782670  1.0  -0.3445
  O  O450  1  0.367330  0.258070  0.924280  1.0  -0.5968
  O  O451  1  0.445030  0.300370  0.969670  1.0  -0.5601
  O  O452  1  0.702330  0.553170  0.971570  1.0  -0.5806
  O  O453  1  0.743630  0.631770  0.923370  1.0  -0.5831
  O  O454  1  0.224100  0.190400  0.964900  1.0  -0.5902
  O  O455  1  0.304800  0.230500  0.010700  1.0  -0.5773
  O  O456  1  0.960500  0.182000  0.962600  1.0  -0.5683
  O  O457  1  0.918600  0.229500  0.012300  1.0  -0.5841
  O  O458  1  0.329200  0.479300  0.150700  1.0  -0.6115
  O  O459  1  0.006900  0.232300  0.116000  1.0  -0.3433
  O  O460  1  0.408600  0.442600  0.257610  1.0  -0.5988
  O  O461  1  0.366300  0.478000  0.303000  1.0  -0.5609
  O  O462  1  0.113500  0.482500  0.304900  1.0  -0.5791
  O  O463  1  0.034900  0.445200  0.256700  1.0  -0.5838
  O  O464  1  0.890770  0.523730  0.298230  1.0  -0.5896
  O  O465  1  0.971470  0.563830  0.344030  1.0  -0.5773
  O  O466  1  0.627170  0.515330  0.295930  1.0  -0.5683
  O  O467  1  0.585270  0.562830  0.345630  1.0  -0.584
  O  O468  1  0.995870  0.812630  0.484030  1.0  -0.6115
  O  O469  1  0.673570  0.565630  0.449330  1.0  -0.3433
  O  O470  1  0.075270  0.775930  0.590940  1.0  -0.5988
  O  O471  1  0.032970  0.811330  0.636330  1.0  -0.5609
  O  O472  1  0.780170  0.815830  0.638230  1.0  -0.58
  O  O473  1  0.701570  0.778530  0.590030  1.0  -0.5837
  O  O474  1  0.557430  0.857070  0.631570  1.0  -0.5897
  O  O475  1  0.638130  0.897170  0.677370  1.0  -0.5772
  O  O476  1  0.293830  0.848670  0.629270  1.0  -0.5683
  O  O477  1  0.251930  0.896170  0.678970  1.0  -0.584
  O  O478  1  0.662530  0.145970  0.817370  1.0  -0.6115
  O  O479  1  0.340230  0.898970  0.782670  1.0  -0.3433
  O  O480  1  0.741930  0.109270  0.924280  1.0  -0.5988
  O  O481  1  0.699630  0.144670  0.969670  1.0  -0.5608
  O  O482  1  0.446830  0.149170  0.971570  1.0  -0.5792
  O  O483  1  0.368230  0.111870  0.923370  1.0  -0.5838
  O  O484  1  0.809600  0.033700  0.964900  1.0  -0.5901
  O  O485  1  0.769500  0.074300  0.010700  1.0  -0.5765
  O  O486  1  0.818000  0.778500  0.962600  1.0  -0.5683
  O  O487  1  0.770500  0.689100  0.012300  1.0  -0.5862
  O  O488  1  0.520700  0.849900  0.150700  1.0  -0.6183
  O  O489  1  0.767700  0.774600  0.116000  1.0  -0.3448
  O  O490  1  0.557400  0.966000  0.257610  1.0  -0.5987
  O  O491  1  0.522000  0.888300  0.303000  1.0  -0.5619
  O  O492  1  0.517500  0.631000  0.304900  1.0  -0.5798
  O  O493  1  0.554800  0.589700  0.256700  1.0  -0.5812
  O  O494  1  0.476270  0.367030  0.298230  1.0  -0.5897
  O  O495  1  0.436170  0.407630  0.344030  1.0  -0.5765
  O  O496  1  0.484670  0.111830  0.295930  1.0  -0.5687
  O  O497  1  0.437170  0.022430  0.345630  1.0  -0.5862
  O  O498  1  0.187370  0.183230  0.484030  1.0  -0.6183
  O  O499  1  0.434370  0.107930  0.449330  1.0  -0.3448
  O  O500  1  0.224070  0.299330  0.590940  1.0  -0.5987
  O  O501  1  0.188670  0.221630  0.636330  1.0  -0.5619
  O  O502  1  0.184170  0.964330  0.638230  1.0  -0.5796
  O  O503  1  0.221470  0.923030  0.590030  1.0  -0.5812
  O  O504  1  0.142930  0.700370  0.631570  1.0  -0.5897
  O  O505  1  0.102830  0.740970  0.677370  1.0  -0.5765
  O  O506  1  0.151330  0.445170  0.629270  1.0  -0.5687
  O  O507  1  0.103830  0.355770  0.678970  1.0  -0.5862
  O  O508  1  0.854030  0.516570  0.817370  1.0  -0.6183
  O  O509  1  0.101030  0.441270  0.782670  1.0  -0.3448
  O  O510  1  0.890730  0.632670  0.924280  1.0  -0.5987
  O  O511  1  0.855330  0.554970  0.969670  1.0  -0.5619
  O  O512  1  0.850830  0.297670  0.971570  1.0  -0.5798
  O  O513  1  0.888130  0.256370  0.923370  1.0  -0.5812
