# generated using pymatgen
data_Cd5H21C29(N7Cl)2
_symmetry_space_group_name_H-M   'P 1'
_cell_length_a   8.86220000
_cell_length_b   19.10140000
_cell_length_c   14.86120000
_cell_angle_alpha   86.44340000
_cell_angle_beta   84.82050000
_cell_angle_gamma   84.53160000
_symmetry_Int_Tables_number   1
_chemical_formula_structural   Cd5H21C29(N7Cl)2
_chemical_formula_sum   'Cd10 H42 C58 N28 Cl4'
_cell_volume   2490.41063799
_cell_formula_units_Z   2
loop_
 _symmetry_equiv_pos_site_id
 _symmetry_equiv_pos_as_xyz
  1  'x, y, z'
loop_
 _atom_site_type_symbol
 _atom_site_label
 _atom_site_symmetry_multiplicity
 _atom_site_fract_x
 _atom_site_fract_y
 _atom_site_fract_z
 _atom_site_occupancy
 _atom_site_charge
  Cd  Cd1  1  0.704610  0.701000  0.921500  1.0  0.8638
  Cd  Cd2  1  0.130470  0.978700  0.703580  1.0  0.9205
  Cd  Cd3  1  0.253470  0.529710  0.832460  1.0  0.6515
  Cd  Cd4  1  0.691950  0.829800  0.567940  1.0  0.9297
  Cd  Cd5  1  0.153440  0.851850  0.043530  1.0  0.7224
  Cd  Cd6  1  0.295390  0.299000  0.078500  1.0  0.8593
  Cd  Cd7  1  0.869530  0.021300  0.296420  1.0  0.9208
  Cd  Cd8  1  0.746530  0.470290  0.167540  1.0  0.6519
  Cd  Cd9  1  0.308050  0.170200  0.432060  1.0  0.9292
  Cd  Cd10  1  0.846560  0.148150  0.956470  1.0  0.7212
  H  H11  1  0.534000  0.878400  0.215100  1.0  0.1068
  H  H12  1  0.584500  0.894300  0.064900  1.0  0.1054
  H  H13  1  0.382100  0.090300  0.081700  1.0  0.1057
  H  H14  1  0.338600  0.069200  0.231900  1.0  0.0994
  H  H15  1  0.461700  0.983700  0.367700  1.0  0.1418
  H  H16  1  0.413300  0.909200  0.350400  1.0  0.1245
  H  H17  1  0.292400  0.974700  0.351500  1.0  0.1243
  H  H18  1  0.466000  0.121600  0.784900  1.0  0.1058
  H  H19  1  0.415500  0.105700  0.935100  1.0  0.1058
  H  H20  1  0.617900  0.909700  0.918300  1.0  0.1049
  H  H21  1  0.661400  0.930800  0.768100  1.0  0.0989
  H  H22  1  0.538300  0.016300  0.632300  1.0  0.1431
  H  H23  1  0.586700  0.090800  0.649600  1.0  0.1259
  H  H24  1  0.707600  0.025300  0.648500  1.0  0.1232
  H  H25  1  0.433400  0.516700  0.344600  1.0  0.093
  H  H26  1  0.452400  0.593000  0.456600  1.0  0.1245
  H  H27  1  0.999400  0.613400  0.490800  1.0  0.1101
  H  H28  1  0.992500  0.537400  0.379600  1.0  0.1109
  H  H29  1  0.461200  0.715700  0.692400  1.0  0.1019
  H  H30  1  0.459200  0.652200  0.568600  1.0  0.1159
  H  H31  1  0.005600  0.677800  0.592600  1.0  0.1229
  H  H32  1  0.014400  0.741000  0.716900  1.0  0.1172
  H  H33  1  0.231000  0.489900  0.226700  1.0  0.1335
  H  H34  1  0.107300  0.452100  0.288800  1.0  0.1253
  H  H35  1  0.280300  0.428300  0.295600  1.0  0.1346
  H  H36  1  0.217500  0.738000  0.853400  1.0  0.1339
  H  H37  1  0.173800  0.810400  0.802300  1.0  0.1392
  H  H38  1  0.345300  0.782200  0.805900  1.0  0.134
  H  H39  1  0.566600  0.483300  0.655400  1.0  0.0928
  H  H40  1  0.547600  0.407000  0.543400  1.0  0.1252
  H  H41  1  0.000600  0.386600  0.509200  1.0  0.1098
  H  H42  1  0.007500  0.462600  0.620400  1.0  0.1114
  H  H43  1  0.538800  0.284300  0.307600  1.0  0.1019
  H  H44  1  0.540800  0.347800  0.431400  1.0  0.1157
  H  H45  1  0.994400  0.322200  0.407400  1.0  0.1212
  H  H46  1  0.985600  0.259000  0.283100  1.0  0.1176
  H  H47  1  0.769000  0.510100  0.773300  1.0  0.1344
  H  H48  1  0.892700  0.547900  0.711200  1.0  0.1241
  H  H49  1  0.719700  0.571700  0.704400  1.0  0.1355
  H  H50  1  0.782500  0.262000  0.146600  1.0  0.132
  H  H51  1  0.826200  0.189600  0.197700  1.0  0.1383
  H  H52  1  0.654700  0.217800  0.194100  1.0  0.136
  C  C53  1  0.446600  0.592100  0.851700  1.0  0.0028
  C  C54  1  0.952400  0.801100  0.010300  1.0  -0.0413
  C  C55  1  0.730600  0.568600  0.083400  1.0  -0.0112
  C  C56  1  0.373500  0.790600  0.015100  1.0  -0.0636
  C  C57  1  0.039800  0.598700  0.855300  1.0  0.008
  C  C58  1  0.177300  0.948400  0.846000  1.0  -0.0777
  C  C59  1  0.116200  0.911400  0.165500  1.0  -0.026
  C  C60  1  0.880200  0.884800  0.614000  1.0  -0.031
  C  C61  1  0.461100  0.879300  0.609600  1.0  -0.0622
  C  C62  1  0.730600  0.717200  0.536600  1.0  0.0539
  C  C63  1  0.218200  0.069000  0.622400  1.0  -0.0574
  C  C64  1  0.553400  0.407900  0.148300  1.0  0.0025
  C  C65  1  0.047600  0.198900  0.989700  1.0  -0.0397
  C  C66  1  0.269400  0.431400  0.916600  1.0  -0.0124
  C  C67  1  0.626500  0.209400  0.984900  1.0  -0.0648
  C  C68  1  0.960200  0.401300  0.144700  1.0  0.0075
  C  C69  1  0.822700  0.051600  0.154000  1.0  -0.0766
  C  C70  1  0.883800  0.088600  0.834500  1.0  -0.0274
  C  C71  1  0.119800  0.115200  0.386000  1.0  -0.0315
  C  C72  1  0.538900  0.120700  0.390400  1.0  -0.0619
  C  C73  1  0.269400  0.282800  0.463400  1.0  0.0552
  C  C74  1  0.781800  0.931000  0.377600  1.0  -0.0575
  C  C75  1  0.503300  0.921600  0.187000  1.0  0.0401
  C  C76  1  0.532500  0.930900  0.096700  1.0  -0.1817
  C  C77  1  0.486800  0.994400  0.048400  1.0  0.0488
  C  C78  1  0.413600  0.046100  0.106800  1.0  -0.1372
  C  C79  1  0.388100  0.033700  0.197100  1.0  0.0274
  C  C80  1  0.396800  0.958800  0.335200  1.0  -0.2126
  C  C81  1  0.496700  0.078400  0.813000  1.0  0.0425
  C  C82  1  0.467500  0.069100  0.903300  1.0  -0.1812
  C  C83  1  0.513200  0.005600  0.951600  1.0  0.0479
  C  C84  1  0.586400  0.953900  0.893200  1.0  -0.1375
  C  C85  1  0.611900  0.966300  0.802900  1.0  0.0264
  C  C86  1  0.603200  0.041200  0.664800  1.0  -0.2131
  C  C87  1  0.345300  0.536100  0.376000  1.0  0.0588
  C  C88  1  0.357500  0.581800  0.442900  1.0  -0.2097
  C  C89  1  0.225800  0.610700  0.489500  1.0  0.0847
  C  C90  1  0.090200  0.593500  0.462800  1.0  -0.1456
  C  C91  1  0.085800  0.548200  0.396400  1.0  0.0554
  C  C92  1  0.368500  0.707100  0.672400  1.0  0.0495
  C  C93  1  0.367500  0.669500  0.598300  1.0  -0.1528
  C  C94  1  0.231100  0.656300  0.565800  1.0  0.0658
  C  C95  1  0.099400  0.684600  0.612500  1.0  -0.1288
  C  C96  1  0.104600  0.722200  0.687000  1.0  0.0019
  C  C97  1  0.207500  0.467900  0.285500  1.0  -0.2023
  C  C98  1  0.244300  0.769000  0.802300  1.0  -0.2096
  C  C99  1  0.654700  0.463900  0.624000  1.0  0.0578
  C  C100  1  0.642500  0.418200  0.557100  1.0  -0.2106
  C  C101  1  0.774200  0.389300  0.510500  1.0  0.0851
  C  C102  1  0.909800  0.406500  0.537200  1.0  -0.1476
  C  C103  1  0.914200  0.451800  0.603600  1.0  0.0566
  C  C104  1  0.631500  0.292900  0.327600  1.0  0.0518
  C  C105  1  0.632500  0.330500  0.401700  1.0  -0.1536
  C  C106  1  0.768900  0.343700  0.434200  1.0  0.067
  C  C107  1  0.900600  0.315400  0.387500  1.0  -0.1309
  C  C108  1  0.895400  0.277800  0.313000  1.0  0.0019
  C  C109  1  0.792500  0.532100  0.714500  1.0  -0.2027
  C  C110  1  0.755700  0.231000  0.197700  1.0  -0.2087
  N  N111  1  0.537900  0.626300  0.865600  1.0  -0.3609
  N  N112  1  0.854400  0.775900  0.988200  1.0  -0.3798
  N  N113  1  0.719700  0.619800  0.041800  1.0  -0.4157
  N  N114  1  0.488300  0.762800  0.991800  1.0  -0.3788
  N  N115  1  0.931200  0.634900  0.865200  1.0  -0.4037
  N  N116  1  0.179300  0.929100  0.918300  1.0  -0.4101
  N  N117  1  0.085800  0.943800  0.226800  1.0  -0.4248
  N  N118  1  0.967400  0.915700  0.643000  1.0  -0.4035
  N  N119  1  0.348300  0.903100  0.638600  1.0  -0.3936
  N  N120  1  0.739500  0.660800  0.531000  1.0  -0.4081
  N  N121  1  0.260800  0.111100  0.572800  1.0  -0.4034
  N  N122  1  0.462100  0.373700  0.134400  1.0  -0.362
  N  N123  1  0.145600  0.224100  0.011800  1.0  -0.379
  N  N124  1  0.280300  0.380200  0.958200  1.0  -0.4128
  N  N125  1  0.511700  0.237200  0.008200  1.0  -0.3802
  N  N126  1  0.068800  0.365100  0.134800  1.0  -0.4053
  N  N127  1  0.820700  0.070900  0.081700  1.0  -0.4095
  N  N128  1  0.914200  0.056200  0.773200  1.0  -0.4237
  N  N129  1  0.032600  0.084300  0.357000  1.0  -0.4034
  N  N130  1  0.651700  0.096900  0.361400  1.0  -0.3944
  N  N131  1  0.260500  0.339200  0.469000  1.0  -0.4092
  N  N132  1  0.739200  0.888900  0.427200  1.0  -0.4012
  N  N133  1  0.432000  0.972100  0.237400  1.0  0.0892
  N  N134  1  0.568000  0.027900  0.762600  1.0  0.0889
  N  N135  1  0.213300  0.519400  0.355500  1.0  0.1145
  N  N136  1  0.238400  0.732500  0.717900  1.0  0.1079
  N  N137  1  0.786700  0.480600  0.644500  1.0  0.1152
  N  N138  1  0.761600  0.267500  0.282100  1.0  0.1071
  Cl  Cl139  1  0.693900  0.779670  0.769760  1.0  -0.532
  Cl  Cl140  1  0.263200  0.493900  0.674800  1.0  -0.5329
  Cl  Cl141  1  0.306100  0.220330  0.230240  1.0  -0.5321
  Cl  Cl142  1  0.736800  0.506100  0.325200  1.0  -0.5323
