# generated using pymatgen
data_Cd6H7(C4N3)5
_symmetry_space_group_name_H-M   'P 1'
_cell_length_a   8.89650000
_cell_length_b   11.71930000
_cell_length_c   52.41400000
_cell_angle_alpha   90.00000000
_cell_angle_beta   97.73400000
_cell_angle_gamma   90.00000000
_symmetry_Int_Tables_number   1
_chemical_formula_structural   Cd6H7(C4N3)5
_chemical_formula_sum   'Cd24 H28 C80 N60'
_cell_volume   5415.01331415
_cell_formula_units_Z   4
loop_
 _symmetry_equiv_pos_site_id
 _symmetry_equiv_pos_as_xyz
  1  'x, y, z'
loop_
 _atom_site_type_symbol
 _atom_site_label
 _atom_site_symmetry_multiplicity
 _atom_site_fract_x
 _atom_site_fract_y
 _atom_site_fract_z
 _atom_site_occupancy
 _atom_site_charge
  Cd  Cd1  1  0.324240  0.115610  0.069170  1.0  0.999
  Cd  Cd2  1  0.361230  0.157170  0.179370  1.0  1.0651
  Cd  Cd3  1  0.886610  0.441350  0.183230  1.0  0.9795
  Cd  Cd4  1  0.834840  0.410360  0.072680  1.0  0.697
  Cd  Cd5  1  0.875100  0.903770  0.210590  1.0  0.6404
  Cd  Cd6  1  0.782860  0.865600  0.038950  1.0  0.6509
  Cd  Cd7  1  0.675760  0.615610  0.430830  1.0  0.999
  Cd  Cd8  1  0.638770  0.657170  0.320630  1.0  1.0634
  Cd  Cd9  1  0.113390  0.941350  0.316770  1.0  0.9793
  Cd  Cd10  1  0.165160  0.910360  0.427320  1.0  0.6974
  Cd  Cd11  1  0.124900  0.403770  0.289410  1.0  0.6401
  Cd  Cd12  1  0.217140  0.365600  0.461050  1.0  0.6508
  Cd  Cd13  1  0.675760  0.884390  0.930830  1.0  0.9986
  Cd  Cd14  1  0.638770  0.842830  0.820630  1.0  1.062
  Cd  Cd15  1  0.113390  0.558650  0.816770  1.0  0.9795
  Cd  Cd16  1  0.165160  0.589640  0.927320  1.0  0.6977
  Cd  Cd17  1  0.124900  0.096230  0.789410  1.0  0.6404
  Cd  Cd18  1  0.217140  0.134400  0.961050  1.0  0.6505
  Cd  Cd19  1  0.324240  0.384390  0.569170  1.0  0.9987
  Cd  Cd20  1  0.361230  0.342830  0.679370  1.0  1.0623
  Cd  Cd21  1  0.886610  0.058650  0.683230  1.0  0.9802
  Cd  Cd22  1  0.834840  0.089640  0.572680  1.0  0.6974
  Cd  Cd23  1  0.875100  0.596230  0.710590  1.0  0.6406
  Cd  Cd24  1  0.782860  0.634400  0.538950  1.0  0.6507
  H  H25  1  0.264200  0.203000  0.218200  1.0  0.3603
  H  H26  1  0.386700  0.284600  0.213900  1.0  0.3877
  H  H27  1  0.299100  0.067300  0.254100  1.0  0.1487
  H  H28  1  0.465000  0.987300  0.288800  1.0  0.1328
  H  H29  1  0.718600  0.045400  0.295800  1.0  0.1541
  H  H30  1  0.795000  0.190200  0.272100  1.0  0.1269
  H  H31  1  0.636300  0.270900  0.239000  1.0  0.1508
  H  H32  1  0.735800  0.703000  0.281800  1.0  0.3637
  H  H33  1  0.613300  0.784600  0.286100  1.0  0.3865
  H  H34  1  0.700900  0.567300  0.245900  1.0  0.1488
  H  H35  1  0.535000  0.487300  0.211200  1.0  0.1322
  H  H36  1  0.281400  0.545400  0.204200  1.0  0.1539
  H  H37  1  0.205000  0.690200  0.227900  1.0  0.1269
  H  H38  1  0.363700  0.770900  0.261000  1.0  0.1505
  H  H39  1  0.735800  0.797000  0.781800  1.0  0.3633
  H  H40  1  0.613300  0.715400  0.786100  1.0  0.3848
  H  H41  1  0.700900  0.932700  0.745900  1.0  0.149
  H  H42  1  0.535000  0.012700  0.711200  1.0  0.1326
  H  H43  1  0.281400  0.954600  0.704200  1.0  0.1537
  H  H44  1  0.205000  0.809800  0.727900  1.0  0.1271
  H  H45  1  0.363700  0.729100  0.761000  1.0  0.1507
  H  H46  1  0.264200  0.297000  0.718200  1.0  0.3603
  H  H47  1  0.386700  0.215400  0.713900  1.0  0.3845
  H  H48  1  0.299100  0.432700  0.754100  1.0  0.1486
  H  H49  1  0.465000  0.512700  0.788800  1.0  0.1325
  H  H50  1  0.718600  0.454600  0.795800  1.0  0.1538
  H  H51  1  0.795000  0.309800  0.772100  1.0  0.1274
  H  H52  1  0.636300  0.229100  0.739000  1.0  0.1509
  C  C53  1  0.346900  0.123800  0.135600  1.0  0.036
  C  C54  1  0.640800  0.292600  0.068600  1.0  -0.0157
  C  C55  1  0.995200  0.952300  0.054800  1.0  0.019
  C  C56  1  0.270500  0.131200  0.003100  1.0  0.0296
  C  C57  1  0.590400  0.921500  0.059000  1.0  -0.0501
  C  C58  1  0.052400  0.327700  0.068400  1.0  -0.0312
  C  C59  1  0.105200  0.374000  0.174600  1.0  0.0279
  C  C60  1  0.043600  0.001500  0.191200  1.0  -0.03
  C  C61  1  0.641200  0.971400  0.201300  1.0  -0.058
  C  C62  1  0.687800  0.331700  0.180300  1.0  0.0621
  C  C63  1  0.835800  0.453000  0.114500  1.0  -0.0324
  C  C64  1  0.873700  0.626700  0.191000  1.0  0.1281
  C  C65  1  0.026900  0.397700  0.248900  1.0  -0.0062
  C  C66  1  0.814400  0.581100  0.054300  1.0  -0.0539
  C  C67  1  0.450700  0.181400  0.244400  1.0  0.2205
  C  C68  1  0.398000  0.093700  0.258000  1.0  -0.1183
  C  C69  1  0.500000  0.043600  0.278600  1.0  -0.0766
  C  C70  1  0.651000  0.079600  0.283100  1.0  -0.1179
  C  C71  1  0.695000  0.164000  0.268600  1.0  -0.0834
  C  C72  1  0.600000  0.214600  0.249100  1.0  -0.1519
  C  C73  1  0.653100  0.623800  0.364400  1.0  0.0363
  C  C74  1  0.359200  0.792600  0.431400  1.0  -0.0168
  C  C75  1  0.004800  0.452300  0.445200  1.0  0.0192
  C  C76  1  0.729500  0.631200  0.496900  1.0  0.0298
  C  C77  1  0.409600  0.421500  0.441000  1.0  -0.0505
  C  C78  1  0.947600  0.827700  0.431600  1.0  -0.0315
  C  C79  1  0.894800  0.874000  0.325400  1.0  0.0273
  C  C80  1  0.956400  0.501500  0.308800  1.0  -0.0307
  C  C81  1  0.358800  0.471400  0.298700  1.0  -0.0612
  C  C82  1  0.312200  0.831700  0.319700  1.0  0.0596
  C  C83  1  0.164200  0.953000  0.385500  1.0  -0.0328
  C  C84  1  0.126300  0.126700  0.309000  1.0  0.1259
  C  C85  1  0.973100  0.897700  0.251100  1.0  -0.0047
  C  C86  1  0.185600  0.081100  0.445700  1.0  -0.0538
  C  C87  1  0.549300  0.681400  0.255600  1.0  0.2198
  C  C88  1  0.602000  0.593700  0.242000  1.0  -0.1164
  C  C89  1  0.500000  0.543600  0.221400  1.0  -0.0745
  C  C90  1  0.349000  0.579600  0.216900  1.0  -0.1184
  C  C91  1  0.305000  0.664000  0.231400  1.0  -0.083
  C  C92  1  0.400000  0.714600  0.250900  1.0  -0.1517
  C  C93  1  0.653100  0.876200  0.864400  1.0  0.0374
  C  C94  1  0.359200  0.707400  0.931400  1.0  -0.0167
  C  C95  1  0.004800  0.047700  0.945200  1.0  0.0174
  C  C96  1  0.729500  0.868800  0.996900  1.0  0.0297
  C  C97  1  0.409600  0.078500  0.941000  1.0  -0.0518
  C  C98  1  0.947600  0.672300  0.931600  1.0  -0.0303
  C  C99  1  0.894800  0.626000  0.825400  1.0  0.0289
  C  C100  1  0.956400  0.998500  0.808800  1.0  -0.0293
  C  C101  1  0.358800  0.028600  0.798700  1.0  -0.0614
  C  C102  1  0.312200  0.668300  0.819700  1.0  0.0607
  C  C103  1  0.164200  0.547000  0.885500  1.0  -0.0326
  C  C104  1  0.126300  0.373300  0.809000  1.0  0.1269
  C  C105  1  0.973100  0.602300  0.751100  1.0  -0.0047
  C  C106  1  0.185600  0.418900  0.945700  1.0  -0.0548
  C  C107  1  0.549300  0.818600  0.755600  1.0  0.2197
  C  C108  1  0.602000  0.906300  0.742000  1.0  -0.1168
  C  C109  1  0.500000  0.956400  0.721400  1.0  -0.075
  C  C110  1  0.349000  0.920400  0.716900  1.0  -0.1185
  C  C111  1  0.305000  0.836000  0.731400  1.0  -0.0821
  C  C112  1  0.400000  0.785400  0.750900  1.0  -0.1508
  C  C113  1  0.346900  0.376200  0.635600  1.0  0.0368
  C  C114  1  0.640800  0.207400  0.568600  1.0  -0.0153
  C  C115  1  0.995200  0.547700  0.554800  1.0  0.0174
  C  C116  1  0.270500  0.368800  0.503100  1.0  0.0294
  C  C117  1  0.590400  0.578500  0.559000  1.0  -0.0514
  C  C118  1  0.052400  0.172300  0.568400  1.0  -0.0307
  C  C119  1  0.105200  0.126000  0.674600  1.0  0.029
  C  C120  1  0.043600  0.498500  0.691200  1.0  -0.031
  C  C121  1  0.641200  0.528600  0.701300  1.0  -0.0584
  C  C122  1  0.687800  0.168300  0.680300  1.0  0.0613
  C  C123  1  0.835800  0.047000  0.614500  1.0  -0.0325
  C  C124  1  0.873700  0.873300  0.691000  1.0  0.129
  C  C125  1  0.026900  0.102300  0.748900  1.0  -0.0063
  C  C126  1  0.814400  0.918900  0.554300  1.0  -0.0546
  C  C127  1  0.450700  0.318600  0.744400  1.0  0.2202
  C  C128  1  0.398000  0.406300  0.758000  1.0  -0.1183
  C  C129  1  0.500000  0.456400  0.778600  1.0  -0.0766
  C  C130  1  0.651000  0.420400  0.783100  1.0  -0.1184
  C  C131  1  0.695000  0.336000  0.768600  1.0  -0.0824
  C  C132  1  0.600000  0.285400  0.749100  1.0  -0.151
  N  N133  1  0.340200  0.116000  0.114000  1.0  -0.3498
  N  N134  1  0.536100  0.232300  0.069800  1.0  -0.3573
  N  N135  1  0.104400  0.997800  0.062900  1.0  -0.3502
  N  N136  1  0.295800  0.126500  0.025300  1.0  -0.3122
  N  N137  1  0.488100  0.958700  0.067500  1.0  -0.4432
  N  N138  1  0.159900  0.276900  0.067600  1.0  -0.368
  N  N139  1  0.213100  0.324500  0.171000  1.0  -0.4305
  N  N140  1  0.140600  0.053800  0.184400  1.0  -0.3859
  N  N141  1  0.528300  0.013000  0.194000  1.0  -0.3818
  N  N142  1  0.578300  0.271600  0.178300  1.0  -0.392
  N  N143  1  0.825300  0.466400  0.136100  1.0  -0.4935
  N  N144  1  0.872300  0.721800  0.196300  1.0  -0.4228
  N  N145  1  0.962800  0.403600  0.228000  1.0  -0.4584
  N  N146  1  0.809900  0.677900  0.048800  1.0  -0.4464
  N  N147  1  0.354100  0.229500  0.222500  1.0  -0.5935
  N  N148  1  0.659800  0.616000  0.386000  1.0  -0.3508
  N  N149  1  0.463900  0.732300  0.430200  1.0  -0.3574
  N  N150  1  0.895600  0.497800  0.437100  1.0  -0.3504
  N  N151  1  0.704200  0.626500  0.474700  1.0  -0.3113
  N  N152  1  0.511900  0.458700  0.432500  1.0  -0.4422
  N  N153  1  0.840100  0.776900  0.432400  1.0  -0.3689
  N  N154  1  0.786900  0.824500  0.329000  1.0  -0.433
  N  N155  1  0.859400  0.553800  0.315600  1.0  -0.3868
  N  N156  1  0.471700  0.513000  0.306000  1.0  -0.3815
  N  N157  1  0.421700  0.771600  0.321700  1.0  -0.3904
  N  N158  1  0.174700  0.966400  0.363900  1.0  -0.4907
  N  N159  1  0.127700  0.221800  0.303700  1.0  -0.4211
  N  N160  1  0.037200  0.903600  0.272000  1.0  -0.4609
  N  N161  1  0.190100  0.177900  0.451200  1.0  -0.4472
  N  N162  1  0.645900  0.729500  0.277500  1.0  -0.5947
  N  N163  1  0.659800  0.884000  0.886000  1.0  -0.3512
  N  N164  1  0.463900  0.767700  0.930200  1.0  -0.3579
  N  N165  1  0.895600  0.002200  0.937100  1.0  -0.3511
  N  N166  1  0.704200  0.873500  0.974700  1.0  -0.3115
  N  N167  1  0.511900  0.041300  0.932500  1.0  -0.4425
  N  N168  1  0.840100  0.723100  0.932400  1.0  -0.3677
  N  N169  1  0.786900  0.675500  0.829000  1.0  -0.4319
  N  N170  1  0.859400  0.946200  0.815600  1.0  -0.3888
  N  N171  1  0.471700  0.987000  0.806000  1.0  -0.3827
  N  N172  1  0.421700  0.728400  0.821700  1.0  -0.3913
  N  N173  1  0.174700  0.533600  0.863900  1.0  -0.4909
  N  N174  1  0.127700  0.278200  0.803700  1.0  -0.421
  N  N175  1  0.037200  0.596400  0.772000  1.0  -0.4611
  N  N176  1  0.190100  0.322100  0.951200  1.0  -0.4446
  N  N177  1  0.645900  0.770500  0.777500  1.0  -0.5948
  N  N178  1  0.340200  0.384000  0.614000  1.0  -0.3503
  N  N179  1  0.536100  0.267700  0.569800  1.0  -0.3576
  N  N180  1  0.104400  0.502200  0.562900  1.0  -0.351
  N  N181  1  0.295800  0.373500  0.525300  1.0  -0.3124
  N  N182  1  0.488100  0.541300  0.567500  1.0  -0.4444
  N  N183  1  0.159900  0.223100  0.567600  1.0  -0.3671
  N  N184  1  0.213100  0.175500  0.671000  1.0  -0.4295
  N  N185  1  0.140600  0.446200  0.684400  1.0  -0.3867
  N  N186  1  0.528300  0.487000  0.694000  1.0  -0.3829
  N  N187  1  0.578300  0.228400  0.678300  1.0  -0.3926
  N  N188  1  0.825300  0.033600  0.636100  1.0  -0.4931
  N  N189  1  0.872300  0.778200  0.696300  1.0  -0.4211
  N  N190  1  0.962800  0.096400  0.728000  1.0  -0.4585
  N  N191  1  0.809900  0.822100  0.548800  1.0  -0.444
  N  N192  1  0.354100  0.270500  0.722500  1.0  -0.5927
