# generated using pymatgen
data_Pr2H18(C5O4)3
_symmetry_space_group_name_H-M   'P 1'
_cell_length_a   8.71700000
_cell_length_b   13.08300000
_cell_length_c   31.05000000
_cell_angle_alpha   90.00000000
_cell_angle_beta   90.00000000
_cell_angle_gamma   90.00000000
_symmetry_Int_Tables_number   1
_chemical_formula_structural   Pr2H18(C5O4)3
_chemical_formula_sum   'Pr8 H72 C60 O48'
_cell_volume   3541.08206655
_cell_formula_units_Z   4
loop_
 _symmetry_equiv_pos_site_id
 _symmetry_equiv_pos_as_xyz
  1  'x, y, z'
loop_
 _atom_site_type_symbol
 _atom_site_label
 _atom_site_symmetry_multiplicity
 _atom_site_fract_x
 _atom_site_fract_y
 _atom_site_fract_z
 _atom_site_occupancy
 _atom_site_charge
  Pr  Pr1  1  0.668780  0.239150  0.906700  1.0  2.1378
  Pr  Pr2  1  0.831220  0.739150  0.093300  1.0  2.1374
  Pr  Pr3  1  0.331220  0.760850  0.406700  1.0  2.1382
  Pr  Pr4  1  0.168780  0.260850  0.593300  1.0  2.138
  Pr  Pr5  1  0.331220  0.760850  0.093300  1.0  2.1379
  Pr  Pr6  1  0.168780  0.260850  0.906700  1.0  2.1383
  Pr  Pr7  1  0.668780  0.239150  0.593300  1.0  2.1374
  Pr  Pr8  1  0.831220  0.739150  0.406700  1.0  2.1379
  H  H9  1  0.617100  0.876100  0.873800  1.0  0.1096
  H  H10  1  0.760000  0.867500  0.904400  1.0  0.1103
  H  H11  1  0.533600  0.783000  0.932600  1.0  0.0882
  H  H12  1  0.457000  0.890900  0.937300  1.0  0.0815
  H  H13  1  0.644900  0.939600  0.987300  1.0  0.1226
  H  H14  1  0.727500  0.834100  0.981700  1.0  0.1035
  H  H15  1  0.995600  0.092800  0.791600  1.0  0.1139
  H  H16  1  0.056100  0.205600  0.790600  1.0  0.097
  H  H17  1  0.882900  0.376100  0.126200  1.0  0.1115
  H  H18  1  0.740000  0.367500  0.095600  1.0  0.106
  H  H19  1  0.966400  0.283000  0.067400  1.0  0.0884
  H  H20  1  0.043000  0.390900  0.062700  1.0  0.0817
  H  H21  1  0.855100  0.439600  0.012700  1.0  0.1233
  H  H22  1  0.772500  0.334100  0.018300  1.0  0.1108
  H  H23  1  0.504400  0.592800  0.208400  1.0  0.1133
  H  H24  1  0.443900  0.705600  0.209400  1.0  0.0968
  H  H25  1  0.382900  0.123900  0.373800  1.0  0.1111
  H  H26  1  0.240000  0.132500  0.404400  1.0  0.1051
  H  H27  1  0.466400  0.217000  0.432600  1.0  0.0881
  H  H28  1  0.543000  0.109100  0.437300  1.0  0.0822
  H  H29  1  0.355100  0.060400  0.487300  1.0  0.1215
  H  H30  1  0.272500  0.165900  0.481700  1.0  0.1099
  H  H31  1  0.004400  0.907200  0.291600  1.0  0.1132
  H  H32  1  0.943900  0.794400  0.290600  1.0  0.0965
  H  H33  1  0.117100  0.623900  0.626200  1.0  0.1105
  H  H34  1  0.260000  0.632500  0.595600  1.0  0.1099
  H  H35  1  0.033600  0.717000  0.567400  1.0  0.0877
  H  H36  1  0.957000  0.609100  0.562700  1.0  0.0834
  H  H37  1  0.144900  0.560400  0.512700  1.0  0.1232
  H  H38  1  0.227500  0.665900  0.518300  1.0  0.1041
  H  H39  1  0.495600  0.407200  0.708400  1.0  0.1146
  H  H40  1  0.556100  0.294400  0.709400  1.0  0.0982
  H  H41  1  0.382900  0.123900  0.126200  1.0  0.1119
  H  H42  1  0.240000  0.132500  0.095600  1.0  0.1064
  H  H43  1  0.466400  0.217000  0.067400  1.0  0.0878
  H  H44  1  0.543000  0.109100  0.062700  1.0  0.0813
  H  H45  1  0.355100  0.060400  0.012700  1.0  0.1214
  H  H46  1  0.272500  0.165900  0.018300  1.0  0.1109
  H  H47  1  0.004400  0.907200  0.208400  1.0  0.1143
  H  H48  1  0.943900  0.794400  0.209400  1.0  0.0971
  H  H49  1  0.117100  0.623900  0.873800  1.0  0.11
  H  H50  1  0.260000  0.632500  0.904400  1.0  0.111
  H  H51  1  0.033600  0.717000  0.932600  1.0  0.0884
  H  H52  1  0.957000  0.609100  0.937300  1.0  0.0818
  H  H53  1  0.144900  0.560400  0.987300  1.0  0.1236
  H  H54  1  0.227500  0.665900  0.981700  1.0  0.1033
  H  H55  1  0.495600  0.407200  0.791600  1.0  0.1132
  H  H56  1  0.556100  0.294400  0.790600  1.0  0.0972
  H  H57  1  0.617100  0.876100  0.626200  1.0  0.1106
  H  H58  1  0.760000  0.867500  0.595600  1.0  0.109
  H  H59  1  0.533600  0.783000  0.567400  1.0  0.0887
  H  H60  1  0.457000  0.890900  0.562700  1.0  0.0831
  H  H61  1  0.644900  0.939600  0.512700  1.0  0.1228
  H  H62  1  0.727500  0.834100  0.518300  1.0  0.1042
  H  H63  1  0.995600  0.092800  0.708400  1.0  0.1138
  H  H64  1  0.056100  0.205600  0.709400  1.0  0.0977
  H  H65  1  0.882900  0.376100  0.373800  1.0  0.1106
  H  H66  1  0.740000  0.367500  0.404400  1.0  0.1052
  H  H67  1  0.966400  0.283000  0.432600  1.0  0.0877
  H  H68  1  0.043000  0.390900  0.437300  1.0  0.0829
  H  H69  1  0.855100  0.439600  0.487300  1.0  0.1228
  H  H70  1  0.772500  0.334100  0.481700  1.0  0.1098
  H  H71  1  0.504400  0.592800  0.291600  1.0  0.1135
  H  H72  1  0.443900  0.705600  0.290600  1.0  0.0965
  H  H73  1  0.784500  0.139600  0.750000  1.0  0.0751
  H  H74  1  0.839600  0.253500  0.750000  1.0  0.0751
  H  H75  1  0.715500  0.639600  0.250000  1.0  0.0707
  H  H76  1  0.660400  0.753500  0.250000  1.0  0.0755
  H  H77  1  0.215500  0.860400  0.250000  1.0  0.0736
  H  H78  1  0.160400  0.746500  0.250000  1.0  0.0749
  H  H79  1  0.284500  0.360400  0.750000  1.0  0.0757
  H  H80  1  0.339600  0.246500  0.750000  1.0  0.0753
  C  C81  1  0.667700  0.013100  0.903880  1.0  0.7743
  C  C82  1  0.658100  0.896400  0.901600  1.0  -0.3115
  C  C83  1  0.554100  0.854800  0.937800  1.0  -0.0599
  C  C84  1  0.628000  0.867400  0.982000  1.0  -0.3481
  C  C85  1  0.535400  0.824300  0.018500  1.0  0.7915
  C  C86  1  0.873600  0.187500  0.830930  1.0  0.8019
  C  C87  1  0.964100  0.163900  0.790900  1.0  -0.3163
  C  C88  1  0.832300  0.513100  0.096120  1.0  0.7755
  C  C89  1  0.841900  0.396400  0.098400  1.0  -0.3135
  C  C90  1  0.945900  0.354800  0.062200  1.0  -0.0589
  C  C91  1  0.872000  0.367400  0.018000  1.0  -0.3515
  C  C92  1  0.964600  0.324300  0.981500  1.0  0.7927
  C  C93  1  0.626400  0.687500  0.169070  1.0  0.8013
  C  C94  1  0.535900  0.663900  0.209100  1.0  -0.319
  C  C95  1  0.332300  0.986900  0.403880  1.0  0.7751
  C  C96  1  0.341900  0.103600  0.401600  1.0  -0.3111
  C  C97  1  0.445900  0.145200  0.437800  1.0  -0.0593
  C  C98  1  0.372000  0.132600  0.482000  1.0  -0.3517
  C  C99  1  0.464600  0.175700  0.518500  1.0  0.7916
  C  C100  1  0.126400  0.812500  0.330930  1.0  0.8012
  C  C101  1  0.035900  0.836100  0.290900  1.0  -0.3194
  C  C102  1  0.167700  0.486900  0.596120  1.0  0.7745
  C  C103  1  0.158100  0.603600  0.598400  1.0  -0.312
  C  C104  1  0.054100  0.645200  0.562200  1.0  -0.0612
  C  C105  1  0.128000  0.632600  0.518000  1.0  -0.3494
  C  C106  1  0.035400  0.675700  0.481500  1.0  0.7941
  C  C107  1  0.373600  0.312500  0.669070  1.0  0.802
  C  C108  1  0.464100  0.336100  0.709100  1.0  -0.318
  C  C109  1  0.332300  0.986900  0.096120  1.0  0.7752
  C  C110  1  0.341900  0.103600  0.098400  1.0  -0.3123
  C  C111  1  0.445900  0.145200  0.062200  1.0  -0.0595
  C  C112  1  0.372000  0.132600  0.018000  1.0  -0.3511
  C  C113  1  0.464600  0.175700  0.981500  1.0  0.7935
  C  C114  1  0.126400  0.812500  0.169070  1.0  0.8008
  C  C115  1  0.035900  0.836100  0.209100  1.0  -0.3201
  C  C116  1  0.167700  0.486900  0.903880  1.0  0.7745
  C  C117  1  0.158100  0.603600  0.901600  1.0  -0.3116
  C  C118  1  0.054100  0.645200  0.937800  1.0  -0.0601
  C  C119  1  0.128000  0.632600  0.982000  1.0  -0.3493
  C  C120  1  0.035400  0.675700  0.018500  1.0  0.7909
  C  C121  1  0.373600  0.312500  0.830930  1.0  0.8019
  C  C122  1  0.464100  0.336100  0.790900  1.0  -0.317
  C  C123  1  0.667700  0.013100  0.596120  1.0  0.7747
  C  C124  1  0.658100  0.896400  0.598400  1.0  -0.3128
  C  C125  1  0.554100  0.854800  0.562200  1.0  -0.0601
  C  C126  1  0.628000  0.867400  0.518000  1.0  -0.3496
  C  C127  1  0.535400  0.824300  0.481500  1.0  0.7931
  C  C128  1  0.873600  0.187500  0.669070  1.0  0.8025
  C  C129  1  0.964100  0.163900  0.709100  1.0  -0.3176
  C  C130  1  0.832300  0.513100  0.403880  1.0  0.7751
  C  C131  1  0.841900  0.396400  0.401600  1.0  -0.3111
  C  C132  1  0.945900  0.354800  0.437800  1.0  -0.0595
  C  C133  1  0.872000  0.367400  0.482000  1.0  -0.3506
  C  C134  1  0.964600  0.324300  0.518500  1.0  0.7921
  C  C135  1  0.626400  0.687500  0.330930  1.0  0.8014
  C  C136  1  0.535900  0.663900  0.290900  1.0  -0.3183
  C  C137  1  0.874600  0.183100  0.750000  1.0  -0.0294
  C  C138  1  0.625400  0.683100  0.250000  1.0  -0.0284
  C  C139  1  0.125400  0.816900  0.250000  1.0  -0.0288
  C  C140  1  0.374600  0.316900  0.750000  1.0  -0.0296
  O  O141  1  0.787500  0.057900  0.915380  1.0  -0.6719
  O  O142  1  0.547700  0.064800  0.895080  1.0  -0.6592
  O  O143  1  0.391500  0.826200  0.017510  1.0  -0.6461
  O  O144  1  0.605600  0.787000  0.051140  1.0  -0.8559
  O  O145  1  0.731900  0.176200  0.831350  1.0  -0.6356
  O  O146  1  0.943200  0.216200  0.865280  1.0  -0.8864
  O  O147  1  0.712500  0.557900  0.084620  1.0  -0.6719
  O  O148  1  0.952300  0.564800  0.104920  1.0  -0.6603
  O  O149  1  0.108500  0.326200  0.982490  1.0  -0.6458
  O  O150  1  0.894400  0.287000  0.948860  1.0  -0.8566
  O  O151  1  0.768100  0.676200  0.168650  1.0  -0.637
  O  O152  1  0.556800  0.716200  0.134720  1.0  -0.8864
  O  O153  1  0.212500  0.942100  0.415380  1.0  -0.6714
  O  O154  1  0.452300  0.935200  0.395080  1.0  -0.6592
  O  O155  1  0.608500  0.173800  0.517510  1.0  -0.6458
  O  O156  1  0.394400  0.213000  0.551140  1.0  -0.8568
  O  O157  1  0.268100  0.823800  0.331350  1.0  -0.6363
  O  O158  1  0.056800  0.783800  0.365280  1.0  -0.8884
  O  O159  1  0.287500  0.442100  0.584620  1.0  -0.6716
  O  O160  1  0.047700  0.435200  0.604920  1.0  -0.6587
  O  O161  1  0.891500  0.673800  0.482490  1.0  -0.6459
  O  O162  1  0.105600  0.713000  0.448860  1.0  -0.8551
  O  O163  1  0.231900  0.323800  0.668650  1.0  -0.6356
  O  O164  1  0.443200  0.283800  0.634720  1.0  -0.8854
  O  O165  1  0.212500  0.942100  0.084620  1.0  -0.6719
  O  O166  1  0.452300  0.935200  0.104920  1.0  -0.6595
  O  O167  1  0.608500  0.173800  0.982490  1.0  -0.6458
  O  O168  1  0.394400  0.213000  0.948860  1.0  -0.8553
  O  O169  1  0.268100  0.823800  0.168650  1.0  -0.6365
  O  O170  1  0.056800  0.783800  0.134720  1.0  -0.887
  O  O171  1  0.287500  0.442100  0.915380  1.0  -0.6717
  O  O172  1  0.047700  0.435200  0.895080  1.0  -0.6591
  O  O173  1  0.891500  0.673800  0.017510  1.0  -0.6462
  O  O174  1  0.105600  0.713000  0.051140  1.0  -0.8558
  O  O175  1  0.231900  0.323800  0.831350  1.0  -0.6355
  O  O176  1  0.443200  0.283800  0.865280  1.0  -0.8864
  O  O177  1  0.787500  0.057900  0.584620  1.0  -0.6714
  O  O178  1  0.547700  0.064800  0.604920  1.0  -0.6594
  O  O179  1  0.391500  0.826200  0.482490  1.0  -0.6459
  O  O180  1  0.605600  0.787000  0.448860  1.0  -0.8567
  O  O181  1  0.731900  0.176200  0.668650  1.0  -0.6364
  O  O182  1  0.943200  0.216200  0.634720  1.0  -0.8851
  O  O183  1  0.712500  0.557900  0.415380  1.0  -0.6717
  O  O184  1  0.952300  0.564800  0.395080  1.0  -0.6604
  O  O185  1  0.108500  0.326200  0.517510  1.0  -0.6457
  O  O186  1  0.894400  0.287000  0.551140  1.0  -0.8565
  O  O187  1  0.768100  0.676200  0.331350  1.0  -0.6362
  O  O188  1  0.556800  0.716200  0.365280  1.0  -0.8881
