# generated using pymatgen
data_FeH5C8O5
_symmetry_space_group_name_H-M   'P 1'
_cell_length_a   19.23410000
_cell_length_b   11.07300000
_cell_length_c   6.88900000
_cell_angle_alpha   90.00000000
_cell_angle_beta   71.69000000
_cell_angle_gamma   90.00000000
_symmetry_Int_Tables_number   1
_chemical_formula_structural   FeH5C8O5
_chemical_formula_sum   'Fe4 H20 C32 O20'
_cell_volume   1392.92957881
_cell_formula_units_Z   4
loop_
 _symmetry_equiv_pos_site_id
 _symmetry_equiv_pos_as_xyz
  1  'x, y, z'
loop_
 _atom_site_type_symbol
 _atom_site_label
 _atom_site_symmetry_multiplicity
 _atom_site_fract_x
 _atom_site_fract_y
 _atom_site_fract_z
 _atom_site_occupancy
 _atom_site_charge
  Fe  Fe1  1  0.000000  0.000000  0.000000  1.0  1.1776
  Fe  Fe2  1  0.500000  0.500000  0.000000  1.0  1.1776
  Fe  Fe3  1  0.000000  0.000000  0.500000  1.0  1.1776
  Fe  Fe4  1  0.500000  0.500000  0.500000  1.0  1.1776
  H  H5  1  0.208800  0.191900  0.337400  1.0  0.1257
  H  H6  1  0.180700  0.215100  0.787600  1.0  0.1287
  H  H7  1  0.500000  0.672110  0.750000  1.0  0.4628
  H  H8  1  0.708800  0.691900  0.337400  1.0  0.1257
  H  H9  1  0.680700  0.715100  0.787600  1.0  0.1287
  H  H10  1  0.000000  0.172110  0.750000  1.0  0.4628
  H  H11  1  0.791200  0.191900  0.162600  1.0  0.1252
  H  H12  1  0.819300  0.215100  0.712400  1.0  0.1289
  H  H13  1  0.291200  0.691900  0.162600  1.0  0.1252
  H  H14  1  0.319300  0.715100  0.712400  1.0  0.1289
  H  H15  1  0.791200  0.808100  0.662600  1.0  0.1253
  H  H16  1  0.819300  0.784900  0.212400  1.0  0.1292
  H  H17  1  0.500000  0.327890  0.250000  1.0  0.4615
  H  H18  1  0.291200  0.308100  0.662600  1.0  0.1253
  H  H19  1  0.319300  0.284900  0.212400  1.0  0.1292
  H  H20  1  0.000000  0.827890  0.250000  1.0  0.4615
  H  H21  1  0.208800  0.808100  0.837400  1.0  0.1258
  H  H22  1  0.180700  0.784900  0.287600  1.0  0.1288
  H  H23  1  0.708800  0.308100  0.837400  1.0  0.1258
  H  H24  1  0.680700  0.284900  0.287600  1.0  0.1288
  C  C25  1  0.181500  0.194600  0.078100  1.0  -0.1088
  C  C26  1  0.225200  0.215700  0.201000  1.0  -0.0353
  C  C27  1  0.108500  0.134000  0.156500  1.0  0.7236
  C  C28  1  0.208500  0.229500  0.874000  1.0  -0.0279
  C  C29  1  0.681500  0.694600  0.078100  1.0  -0.1088
  C  C30  1  0.725200  0.715700  0.201000  1.0  -0.0353
  C  C31  1  0.608500  0.634000  0.156500  1.0  0.7236
  C  C32  1  0.708500  0.729500  0.874000  1.0  -0.0279
  C  C33  1  0.818500  0.194600  0.421900  1.0  -0.109
  C  C34  1  0.774800  0.215700  0.299000  1.0  -0.0321
  C  C35  1  0.891500  0.134000  0.343500  1.0  0.7244
  C  C36  1  0.791500  0.229500  0.626000  1.0  -0.0291
  C  C37  1  0.318500  0.694600  0.421900  1.0  -0.109
  C  C38  1  0.274800  0.715700  0.299000  1.0  -0.0321
  C  C39  1  0.391500  0.634000  0.343500  1.0  0.7244
  C  C40  1  0.291500  0.729500  0.626000  1.0  -0.0291
  C  C41  1  0.818500  0.805400  0.921900  1.0  -0.1081
  C  C42  1  0.774800  0.784300  0.799000  1.0  -0.0329
  C  C43  1  0.891500  0.866000  0.843500  1.0  0.7241
  C  C44  1  0.791500  0.770500  0.126000  1.0  -0.0285
  C  C45  1  0.318500  0.305400  0.921900  1.0  -0.1081
  C  C46  1  0.274800  0.284300  0.799000  1.0  -0.0329
  C  C47  1  0.391500  0.366000  0.843500  1.0  0.7241
  C  C48  1  0.291500  0.270500  0.126000  1.0  -0.0285
  C  C49  1  0.181500  0.805400  0.578100  1.0  -0.1095
  C  C50  1  0.225200  0.784300  0.701000  1.0  -0.0354
  C  C51  1  0.108500  0.866000  0.656500  1.0  0.7241
  C  C52  1  0.208500  0.770500  0.374000  1.0  -0.0274
  C  C53  1  0.681500  0.305400  0.578100  1.0  -0.1095
  C  C54  1  0.725200  0.284300  0.701000  1.0  -0.0354
  C  C55  1  0.608500  0.366000  0.656500  1.0  0.7241
  C  C56  1  0.708500  0.270500  0.374000  1.0  -0.0274
  O  O57  1  0.071200  0.126000  0.039100  1.0  -0.5987
  O  O58  1  0.088800  0.100600  0.343700  1.0  -0.5788
  O  O59  1  0.571200  0.626000  0.039100  1.0  -0.5987
  O  O60  1  0.588800  0.600600  0.343700  1.0  -0.5788
  O  O61  1  0.928800  0.126000  0.460900  1.0  -0.5988
  O  O62  1  0.911200  0.100600  0.156300  1.0  -0.5775
  O  O63  1  0.428800  0.626000  0.460900  1.0  -0.5988
  O  O64  1  0.411200  0.600600  0.156300  1.0  -0.5775
  O  O65  1  0.928800  0.874000  0.960900  1.0  -0.5992
  O  O66  1  0.911200  0.899400  0.656300  1.0  -0.5778
  O  O67  1  0.428800  0.374000  0.960900  1.0  -0.5992
  O  O68  1  0.411200  0.399400  0.656300  1.0  -0.5778
  O  O69  1  0.071200  0.874000  0.539100  1.0  -0.5991
  O  O70  1  0.088800  0.899400  0.843700  1.0  -0.5782
  O  O71  1  0.571200  0.374000  0.539100  1.0  -0.5991
  O  O72  1  0.588800  0.399400  0.843700  1.0  -0.5782
  O  O73  1  0.000000  0.081800  0.750000  1.0  -0.8974
  O  O74  1  0.500000  0.581800  0.750000  1.0  -0.8974
  O  O75  1  0.000000  0.918200  0.250000  1.0  -0.904
  O  O76  1  0.500000  0.418200  0.250000  1.0  -0.904
