# generated using pymatgen
data_Zn5(PO4)4
_symmetry_space_group_name_H-M   'P 1'
_cell_length_a   7.49700000
_cell_length_b   13.15400000
_cell_length_c   18.20600000
_cell_angle_alpha   90.00000000
_cell_angle_beta   90.00000000
_cell_angle_gamma   90.00000000
_symmetry_Int_Tables_number   1
_chemical_formula_structural   Zn5(PO4)4
_chemical_formula_sum   'Zn20 P16 O64'
_cell_volume   1795.39448483
_cell_formula_units_Z   4
loop_
 _symmetry_equiv_pos_site_id
 _symmetry_equiv_pos_as_xyz
  1  'x, y, z'
loop_
 _atom_site_type_symbol
 _atom_site_label
 _atom_site_symmetry_multiplicity
 _atom_site_fract_x
 _atom_site_fract_y
 _atom_site_fract_z
 _atom_site_occupancy
 _atom_site_charge
  Zn  Zn1  1  0.043020  0.624240  0.036040  1.0  0.9431
  Zn  Zn2  1  0.043170  0.371610  0.038360  1.0  1.128
  Zn  Zn3  1  0.600230  0.371880  0.058620  1.0  1.1374
  Zn  Zn4  1  0.597980  0.625200  0.056090  1.0  1.142
  Zn  Zn5  1  0.658670  0.503300  0.832750  1.0  1.1598
  Zn  Zn6  1  0.456980  0.375760  0.536040  1.0  0.9436
  Zn  Zn7  1  0.456830  0.628390  0.538360  1.0  1.1286
  Zn  Zn8  1  0.899770  0.628120  0.558620  1.0  1.1361
  Zn  Zn9  1  0.902020  0.374800  0.556090  1.0  1.1404
  Zn  Zn10  1  0.841330  0.496700  0.332750  1.0  1.1579
  Zn  Zn11  1  0.956980  0.124240  0.463960  1.0  0.9434
  Zn  Zn12  1  0.956830  0.871610  0.461640  1.0  1.1284
  Zn  Zn13  1  0.399770  0.871880  0.441380  1.0  1.1353
  Zn  Zn14  1  0.402020  0.125200  0.443910  1.0  1.1388
  Zn  Zn15  1  0.341330  0.003300  0.667250  1.0  1.1608
  Zn  Zn16  1  0.543020  0.875760  0.963960  1.0  0.9426
  Zn  Zn17  1  0.543170  0.128390  0.961640  1.0  1.1281
  Zn  Zn18  1  0.100230  0.128120  0.941380  1.0  1.1368
  Zn  Zn19  1  0.097980  0.874800  0.943910  1.0  1.141
  Zn  Zn20  1  0.158670  0.996700  0.167250  1.0  1.1591
  P  P21  1  0.791700  0.304300  0.914240  1.0  1.8474
  P  P22  1  0.338140  0.495600  0.959960  1.0  1.8472
  P  P23  1  0.790000  0.699800  0.914340  1.0  1.7362
  P  P24  1  0.855120  0.499600  0.157190  1.0  1.7417
  P  P25  1  0.708300  0.695700  0.414240  1.0  1.8465
  P  P26  1  0.161860  0.504400  0.459960  1.0  1.8463
  P  P27  1  0.710000  0.300200  0.414340  1.0  1.7364
  P  P28  1  0.644880  0.500400  0.657190  1.0  1.7418
  P  P29  1  0.208300  0.804300  0.585760  1.0  1.8462
  P  P30  1  0.661860  0.995600  0.540040  1.0  1.8463
  P  P31  1  0.210000  0.199800  0.585660  1.0  1.7353
  P  P32  1  0.144880  0.999600  0.342810  1.0  1.7416
  P  P33  1  0.291700  0.195700  0.085760  1.0  1.8473
  P  P34  1  0.838140  0.004400  0.040040  1.0  1.8471
  P  P35  1  0.290000  0.800200  0.085660  1.0  1.7353
  P  P36  1  0.355120  0.000400  0.842810  1.0  1.7413
  O  O37  1  0.807400  0.386700  0.856100  1.0  -0.7241
  O  O38  1  0.804600  0.351600  0.991500  1.0  -0.8939
  O  O39  1  0.947300  0.232000  0.905400  1.0  -0.8314
  O  O40  1  0.607500  0.250300  0.909100  1.0  -0.7424
  O  O41  1  0.481000  0.496500  0.022800  1.0  -0.9028
  O  O42  1  0.226500  0.398800  0.968300  1.0  -0.7722
  O  O43  1  0.226800  0.591300  0.964600  1.0  -0.7458
  O  O44  1  0.434100  0.494200  0.885820  1.0  -0.8003
  O  O45  1  0.805500  0.643600  0.991100  1.0  -0.921
  O  O46  1  0.801200  0.623300  0.852100  1.0  -0.7265
  O  O47  1  0.609100  0.752800  0.913100  1.0  -0.7455
  O  O48  1  0.941700  0.775600  0.908300  1.0  -0.8123
  O  O49  1  0.010900  0.497400  0.098590  1.0  -0.8925
  O  O50  1  0.936100  0.503100  0.233280  1.0  -0.7273
  O  O51  1  0.741500  0.593200  0.142800  1.0  -0.7171
  O  O52  1  0.747700  0.401600  0.144900  1.0  -0.7266
  O  O53  1  0.692600  0.613300  0.356100  1.0  -0.724
  O  O54  1  0.695400  0.648400  0.491500  1.0  -0.8941
  O  O55  1  0.552700  0.768000  0.405400  1.0  -0.8325
  O  O56  1  0.892500  0.749700  0.409100  1.0  -0.7425
  O  O57  1  0.019000  0.503500  0.522800  1.0  -0.9033
  O  O58  1  0.273500  0.601200  0.468300  1.0  -0.7717
  O  O59  1  0.273200  0.408700  0.464600  1.0  -0.746
  O  O60  1  0.065900  0.505800  0.385820  1.0  -0.8008
  O  O61  1  0.694500  0.356400  0.491100  1.0  -0.9211
  O  O62  1  0.698800  0.376700  0.352100  1.0  -0.7249
  O  O63  1  0.890900  0.247200  0.413100  1.0  -0.7463
  O  O64  1  0.558300  0.224400  0.408300  1.0  -0.8115
  O  O65  1  0.489100  0.502600  0.598590  1.0  -0.8916
  O  O66  1  0.563900  0.496900  0.733280  1.0  -0.7275
  O  O67  1  0.758500  0.406800  0.642800  1.0  -0.7182
  O  O68  1  0.752300  0.598400  0.644900  1.0  -0.727
  O  O69  1  0.192600  0.886700  0.643900  1.0  -0.7231
  O  O70  1  0.195400  0.851600  0.508500  1.0  -0.8934
  O  O71  1  0.052700  0.732000  0.594600  1.0  -0.8337
  O  O72  1  0.392500  0.750300  0.590900  1.0  -0.7423
  O  O73  1  0.519000  0.996500  0.477200  1.0  -0.9019
  O  O74  1  0.773500  0.898800  0.531700  1.0  -0.7722
  O  O75  1  0.773200  0.091300  0.535400  1.0  -0.7454
  O  O76  1  0.565900  0.994200  0.614180  1.0  -0.8012
  O  O77  1  0.194500  0.143600  0.508900  1.0  -0.9209
  O  O78  1  0.198800  0.123300  0.647900  1.0  -0.7258
  O  O79  1  0.390900  0.252800  0.586900  1.0  -0.7442
  O  O80  1  0.058300  0.275600  0.591700  1.0  -0.8136
  O  O81  1  0.989100  0.997400  0.401410  1.0  -0.8906
  O  O82  1  0.063900  0.003100  0.266720  1.0  -0.727
  O  O83  1  0.258500  0.093200  0.357200  1.0  -0.7172
  O  O84  1  0.252300  0.901600  0.355100  1.0  -0.7267
  O  O85  1  0.307400  0.113300  0.143900  1.0  -0.7231
  O  O86  1  0.304600  0.148400  0.008500  1.0  -0.8927
  O  O87  1  0.447300  0.268000  0.094600  1.0  -0.8332
  O  O88  1  0.107500  0.249700  0.090900  1.0  -0.7419
  O  O89  1  0.981000  0.003500  0.977200  1.0  -0.9014
  O  O90  1  0.726500  0.101200  0.031700  1.0  -0.771
  O  O91  1  0.726800  0.908700  0.035400  1.0  -0.7451
  O  O92  1  0.934100  0.005800  0.114180  1.0  -0.8008
  O  O93  1  0.305500  0.856400  0.008900  1.0  -0.9211
  O  O94  1  0.301200  0.876700  0.147900  1.0  -0.7243
  O  O95  1  0.109100  0.747200  0.086900  1.0  -0.7435
  O  O96  1  0.441700  0.724400  0.091700  1.0  -0.8114
  O  O97  1  0.510900  0.002600  0.901410  1.0  -0.8913
  O  O98  1  0.436100  0.996900  0.766720  1.0  -0.7268
  O  O99  1  0.241500  0.906800  0.857200  1.0  -0.7171
  O  O100  1  0.247700  0.098400  0.855100  1.0  -0.7264
