# generated using pymatgen
data_Ba2U2P2H2CO9F4
_symmetry_space_group_name_H-M   'P 1'
_cell_length_a   12.07400000
_cell_length_b   12.70900000
_cell_length_c   13.94700000
_cell_angle_alpha   90.00000000
_cell_angle_beta   90.00000000
_cell_angle_gamma   115.48100000
_symmetry_Int_Tables_number   1
_chemical_formula_structural   Ba2U2P2H2CO9F4
_chemical_formula_sum   'Ba8 U8 P8 H8 C4 O36 F16'
_cell_volume   1931.96949227
_cell_formula_units_Z   4
loop_
 _symmetry_equiv_pos_site_id
 _symmetry_equiv_pos_as_xyz
  1  'x, y, z'
loop_
 _atom_site_type_symbol
 _atom_site_label
 _atom_site_symmetry_multiplicity
 _atom_site_fract_x
 _atom_site_fract_y
 _atom_site_fract_z
 _atom_site_occupancy
 _atom_site_charge
  Ba  Ba1  1  0.778100  0.155890  0.395310  1.0  1.6633
  Ba  Ba2  1  0.606770  0.803950  0.297710  1.0  1.6435
  Ba  Ba3  1  0.221900  0.344110  0.895310  1.0  1.6629
  Ba  Ba4  1  0.393230  0.696050  0.797710  1.0  1.644
  Ba  Ba5  1  0.221900  0.844110  0.604690  1.0  1.6626
  Ba  Ba6  1  0.393230  0.196050  0.702290  1.0  1.6439
  Ba  Ba7  1  0.778100  0.655890  0.104690  1.0  1.6625
  Ba  Ba8  1  0.606770  0.303950  0.202290  1.0  1.6431
  U  U9  1  0.968640  0.016630  0.215190  1.0  2.2509
  U  U10  1  0.390600  0.495190  0.179260  1.0  3.008
  U  U11  1  0.031360  0.483370  0.715190  1.0  2.2515
  U  U12  1  0.609400  0.004810  0.679260  1.0  3.0083
  U  U13  1  0.031360  0.983370  0.784810  1.0  2.2513
  U  U14  1  0.609400  0.504810  0.820740  1.0  3.0088
  U  U15  1  0.968640  0.516630  0.284810  1.0  2.2508
  U  U16  1  0.390600  0.995190  0.320740  1.0  3.0083
  P  P17  1  0.270240  0.209160  0.289440  1.0  1.733
  P  P18  1  0.100610  0.319320  0.293790  1.0  1.7323
  P  P19  1  0.729760  0.290840  0.789440  1.0  1.7329
  P  P20  1  0.899390  0.180680  0.793790  1.0  1.7322
  P  P21  1  0.729760  0.790840  0.710560  1.0  1.733
  P  P22  1  0.899390  0.680680  0.706210  1.0  1.7322
  P  P23  1  0.270240  0.709160  0.210560  1.0  1.7333
  P  P24  1  0.100610  0.819320  0.206210  1.0  1.7321
  H  H25  1  0.254000  0.337900  0.401900  1.0  0.2564
  H  H26  1  0.142600  0.214600  0.413300  1.0  0.2395
  H  H27  1  0.746000  0.162100  0.901900  1.0  0.2567
  H  H28  1  0.857400  0.285400  0.913300  1.0  0.2397
  H  H29  1  0.746000  0.662100  0.598100  1.0  0.2567
  H  H30  1  0.857400  0.785400  0.586700  1.0  0.2396
  H  H31  1  0.254000  0.837900  0.098100  1.0  0.2562
  H  H32  1  0.142600  0.714600  0.086700  1.0  0.2393
  C  C33  1  0.193700  0.272100  0.367100  1.0  -1.0123
  C  C34  1  0.806300  0.227900  0.867100  1.0  -1.0133
  C  C35  1  0.806300  0.727900  0.632900  1.0  -0.9867
  C  C36  1  0.193700  0.772100  0.132900  1.0  -0.9865
  O  O37  1  0.376600  0.310500  0.241700  1.0  -1.0497
  O  O38  1  0.178100  0.136400  0.213800  1.0  -0.9492
  O  O39  1  0.184000  0.387300  0.211400  1.0  -0.9829
  O  O40  1  0.313300  0.135100  0.351700  1.0  -0.8843
  O  O41  1  0.051300  0.393500  0.349200  1.0  -1.0056
  O  O42  1  0.992700  0.207100  0.260500  1.0  -1.0253
  O  O43  1  0.424000  0.549100  0.298800  1.0  -0.8864
  O  O44  1  0.355800  0.446800  0.058800  1.0  -0.8718
  O  O45  1  0.776000  0.930600  0.456400  1.0  -0.8856
  O  O46  1  0.623400  0.189500  0.741700  1.0  -1.0511
  O  O47  1  0.821900  0.363600  0.713800  1.0  -0.9496
  O  O48  1  0.816000  0.112700  0.711400  1.0  -0.9823
  O  O49  1  0.686700  0.364900  0.851700  1.0  -0.8851
  O  O50  1  0.948700  0.106500  0.849200  1.0  -1.0055
  O  O51  1  0.007300  0.292900  0.760500  1.0  -1.0264
  O  O52  1  0.576000  0.950900  0.798800  1.0  -0.8879
  O  O53  1  0.644200  0.053200  0.558800  1.0  -0.8717
  O  O54  1  0.224000  0.569400  0.956400  1.0  -0.884
  O  O55  1  0.623400  0.689500  0.758300  1.0  -1.0516
  O  O56  1  0.821900  0.863600  0.786200  1.0  -0.9497
  O  O57  1  0.816000  0.612700  0.788600  1.0  -0.9876
  O  O58  1  0.686700  0.864900  0.648300  1.0  -0.8846
  O  O59  1  0.948700  0.606500  0.650800  1.0  -1.0054
  O  O60  1  0.007300  0.792900  0.739500  1.0  -1.0288
  O  O61  1  0.576000  0.450900  0.701200  1.0  -0.8878
  O  O62  1  0.644200  0.553200  0.941200  1.0  -0.8719
  O  O63  1  0.224000  0.069400  0.543600  1.0  -0.8835
  O  O64  1  0.376600  0.810500  0.258300  1.0  -1.051
  O  O65  1  0.178100  0.636400  0.286200  1.0  -0.95
  O  O66  1  0.184000  0.887300  0.288600  1.0  -0.989
  O  O67  1  0.313300  0.635100  0.148300  1.0  -0.8848
  O  O68  1  0.051300  0.893500  0.150800  1.0  -1.0049
  O  O69  1  0.992700  0.707100  0.239500  1.0  -1.0265
  O  O70  1  0.424000  0.049100  0.201200  1.0  -0.8879
  O  O71  1  0.355800  0.946800  0.441200  1.0  -0.872
  O  O72  1  0.776000  0.430600  0.043600  1.0  -0.8853
  F  F73  1  0.568000  0.479700  0.158300  1.0  -0.7372
  F  F74  1  0.552300  0.671400  0.139700  1.0  -0.7578
  F  F75  1  0.787100  0.015900  0.259800  1.0  -0.711
  F  F76  1  0.808000  0.836300  0.199200  1.0  -0.7766
  F  F77  1  0.432000  0.020300  0.658300  1.0  -0.7368
  F  F78  1  0.447700  0.828600  0.639700  1.0  -0.757
  F  F79  1  0.212900  0.484100  0.759800  1.0  -0.7099
  F  F80  1  0.192000  0.663700  0.699200  1.0  -0.7753
  F  F81  1  0.432000  0.520300  0.841700  1.0  -0.7368
  F  F82  1  0.447700  0.328600  0.860300  1.0  -0.7567
  F  F83  1  0.212900  0.984100  0.740200  1.0  -0.7101
  F  F84  1  0.192000  0.163700  0.800800  1.0  -0.7749
  F  F85  1  0.568000  0.979700  0.341700  1.0  -0.7372
  F  F86  1  0.552300  0.171400  0.360300  1.0  -0.7586
  F  F87  1  0.787100  0.515900  0.240200  1.0  -0.711
  F  F88  1  0.808000  0.336300  0.300800  1.0  -0.776
