# generated using pymatgen
data_Ba3U4P4H4C2(O7F3)2
_symmetry_space_group_name_H-M   'P 1'
_cell_length_a   11.92340000
_cell_length_b   11.92340000
_cell_length_c   12.67480000
_cell_angle_alpha   69.66370000
_cell_angle_beta   69.66370000
_cell_angle_gamma   88.94220000
_symmetry_Int_Tables_number   1
_chemical_formula_structural   Ba3U4P4H4C2(O7F3)2
_chemical_formula_sum   'Ba6 U8 P8 H8 C4 O28 F12'
_cell_volume   1573.54681915
_cell_formula_units_Z   2
loop_
 _symmetry_equiv_pos_site_id
 _symmetry_equiv_pos_as_xyz
  1  'x, y, z'
loop_
 _atom_site_type_symbol
 _atom_site_label
 _atom_site_symmetry_multiplicity
 _atom_site_fract_x
 _atom_site_fract_y
 _atom_site_fract_z
 _atom_site_occupancy
 _atom_site_charge
  Ba  Ba1  1  0.913630  0.521750  0.171760  1.0  1.512
  Ba  Ba2  1  0.478250  0.086370  0.328240  1.0  1.5113
  Ba  Ba3  1  0.086370  0.478250  0.828240  1.0  1.5125
  Ba  Ba4  1  0.521750  0.913630  0.671760  1.0  1.5128
  Ba  Ba5  1  0.862690  0.137310  0.250000  1.0  1.7044
  Ba  Ba6  1  0.137310  0.862690  0.750000  1.0  1.7042
  U  U7  1  0.713430  0.393970  0.027560  1.0  1.4379
  U  U8  1  0.861680  0.868870  0.601000  1.0  1.9904
  U  U9  1  0.606030  0.286570  0.472440  1.0  1.4454
  U  U10  1  0.131130  0.138320  0.899000  1.0  1.9941
  U  U11  1  0.286570  0.606030  0.972440  1.0  1.4523
  U  U12  1  0.138320  0.131130  0.399000  1.0  1.9879
  U  U13  1  0.393970  0.713430  0.527560  1.0  1.4398
  U  U14  1  0.868870  0.861680  0.101000  1.0  1.988
  P  P15  1  0.382990  0.334950  0.134880  1.0  1.6818
  P  P16  1  0.158970  0.297810  0.093090  1.0  1.7016
  P  P17  1  0.665050  0.617010  0.365120  1.0  1.6828
  P  P18  1  0.702190  0.841030  0.406910  1.0  1.7032
  P  P19  1  0.617010  0.665050  0.865120  1.0  1.6813
  P  P20  1  0.841030  0.702190  0.906910  1.0  1.6999
  P  P21  1  0.334950  0.382990  0.634880  1.0  1.6826
  P  P22  1  0.297810  0.158970  0.593090  1.0  1.7051
  H  H23  1  0.325000  0.194200  0.069900  1.0  0.2387
  H  H24  1  0.356700  0.321700  0.966600  1.0  0.2309
  H  H25  1  0.805800  0.675000  0.430100  1.0  0.233
  H  H26  1  0.678300  0.643300  0.533400  1.0  0.2317
  H  H27  1  0.675000  0.805800  0.930100  1.0  0.2362
  H  H28  1  0.643300  0.678300  0.033400  1.0  0.2317
  H  H29  1  0.194200  0.325000  0.569900  1.0  0.2366
  H  H30  1  0.321700  0.356700  0.466600  1.0  0.2309
  C  C31  1  0.315540  0.278920  0.052590  1.0  -1.0243
  C  C32  1  0.721080  0.684460  0.447410  1.0  -1.0262
  C  C33  1  0.684460  0.721080  0.947410  1.0  -1.0265
  C  C34  1  0.278920  0.315540  0.552590  1.0  -1.0251
  O  O35  1  0.140550  0.427630  0.081180  1.0  -0.9973
  O  O36  1  0.371660  0.469060  0.099340  1.0  -0.8522
  O  O37  1  0.779790  0.976330  0.655320  1.0  -0.8596
  O  O38  1  0.092810  0.211850  0.223990  1.0  -0.9869
  O  O39  1  0.309510  0.264310  0.269530  1.0  -0.9642
  O  O40  1  0.512190  0.305090  0.107080  1.0  -0.9365
  O  O41  1  0.111970  0.263730  0.009000  1.0  -0.9681
  O  O42  1  0.572370  0.859450  0.418820  1.0  -0.9942
  O  O43  1  0.530940  0.628340  0.400660  1.0  -0.8488
  O  O44  1  0.023670  0.220210  0.844680  1.0  -0.8591
  O  O45  1  0.788150  0.907190  0.276010  1.0  -0.9876
  O  O46  1  0.735690  0.690490  0.230470  1.0  -0.9633
  O  O47  1  0.694910  0.487810  0.392920  1.0  -0.9361
  O  O48  1  0.736270  0.888030  0.491000  1.0  -0.9694
  O  O49  1  0.859450  0.572370  0.918820  1.0  -0.9953
  O  O50  1  0.628340  0.530940  0.900660  1.0  -0.8531
  O  O51  1  0.220210  0.023670  0.344680  1.0  -0.8587
  O  O52  1  0.907190  0.788150  0.776010  1.0  -0.9858
  O  O53  1  0.690490  0.735690  0.730470  1.0  -0.9624
  O  O54  1  0.487810  0.694910  0.892920  1.0  -0.9374
  O  O55  1  0.888030  0.736270  0.991000  1.0  -0.9686
  O  O56  1  0.427630  0.140550  0.581180  1.0  -0.9944
  O  O57  1  0.469060  0.371660  0.599340  1.0  -0.8503
  O  O58  1  0.976330  0.779790  0.155320  1.0  -0.8602
  O  O59  1  0.211850  0.092810  0.723990  1.0  -0.9881
  O  O60  1  0.264310  0.309510  0.769530  1.0  -0.9643
  O  O61  1  0.305090  0.512190  0.607080  1.0  -0.9394
  O  O62  1  0.263730  0.111970  0.509000  1.0  -0.969
  F  F63  1  0.891850  0.364650  0.066310  1.0  -0.6685
  F  F64  1  0.796470  0.309330  0.327710  1.0  -0.7312
  F  F65  1  0.958010  0.028850  0.416730  1.0  -0.6628
  F  F66  1  0.635350  0.108150  0.433690  1.0  -0.6686
  F  F67  1  0.690670  0.203530  0.172290  1.0  -0.732
  F  F68  1  0.971150  0.041990  0.083270  1.0  -0.662
  F  F69  1  0.108150  0.635350  0.933690  1.0  -0.6683
  F  F70  1  0.203530  0.690670  0.672290  1.0  -0.7321
  F  F71  1  0.041990  0.971150  0.583270  1.0  -0.6616
  F  F72  1  0.364650  0.891850  0.566310  1.0  -0.6689
  F  F73  1  0.309330  0.796470  0.827710  1.0  -0.7307
  F  F74  1  0.028850  0.958010  0.916730  1.0  -0.6617
