# generated using pymatgen
data_U3P4H8C12O12F
_symmetry_space_group_name_H-M   'P 1'
_cell_length_a   11.24800000
_cell_length_b   20.87340000
_cell_length_c   14.66410000
_cell_angle_alpha   90.00000000
_cell_angle_beta   105.31800000
_cell_angle_gamma   90.00000000
_symmetry_Int_Tables_number   1
_chemical_formula_structural   U3P4H8C12O12F
_chemical_formula_sum   'U12 P16 H32 C48 O48 F4'
_cell_volume   3320.58540187
_cell_formula_units_Z   4
loop_
 _symmetry_equiv_pos_site_id
 _symmetry_equiv_pos_as_xyz
  1  'x, y, z'
loop_
 _atom_site_type_symbol
 _atom_site_label
 _atom_site_symmetry_multiplicity
 _atom_site_fract_x
 _atom_site_fract_y
 _atom_site_fract_z
 _atom_site_occupancy
 _atom_site_charge
  U  U1  1  0.777220  0.225220  0.558790  1.0  1.6677
  U  U2  1  0.874670  0.014830  0.372840  1.0  1.9851
  U  U3  1  0.923440  0.418890  0.536330  1.0  1.8326
  U  U4  1  0.722780  0.725220  0.941210  1.0  1.6654
  U  U5  1  0.625330  0.514830  0.127160  1.0  1.9851
  U  U6  1  0.576560  0.918890  0.963670  1.0  1.8322
  U  U7  1  0.222780  0.774780  0.441210  1.0  1.6655
  U  U8  1  0.125330  0.985170  0.627160  1.0  1.985
  U  U9  1  0.076560  0.581110  0.463670  1.0  1.8321
  U  U10  1  0.277220  0.274780  0.058790  1.0  1.6684
  U  U11  1  0.374670  0.485170  0.872840  1.0  1.9851
  U  U12  1  0.423440  0.081110  0.036330  1.0  1.8327
  P  P13  1  0.601860  0.115960  0.385370  1.0  1.4571
  P  P14  1  0.204420  0.446940  0.628240  1.0  1.4703
  P  P15  1  0.126370  0.946300  0.376400  1.0  1.4242
  P  P16  1  0.617110  0.364350  0.424870  1.0  1.4489
  P  P17  1  0.898140  0.615960  0.114630  1.0  1.4596
  P  P18  1  0.295580  0.946940  0.871760  1.0  1.4701
  P  P19  1  0.373630  0.446300  0.123600  1.0  1.4232
  P  P20  1  0.882890  0.864350  0.075130  1.0  1.4507
  P  P21  1  0.398140  0.884040  0.614630  1.0  1.46
  P  P22  1  0.795580  0.553060  0.371760  1.0  1.4697
  P  P23  1  0.873630  0.053700  0.623600  1.0  1.4242
  P  P24  1  0.382890  0.635650  0.575130  1.0  1.4509
  P  P25  1  0.101860  0.384040  0.885370  1.0  1.4564
  P  P26  1  0.704420  0.053060  0.128240  1.0  1.4699
  P  P27  1  0.626370  0.553700  0.876400  1.0  1.4247
  P  P28  1  0.117110  0.135650  0.924870  1.0  1.4506
  H  H29  1  0.352300  0.142900  0.386600  1.0  0.1079
  H  H30  1  0.179800  0.081500  0.384400  1.0  0.113
  H  H31  1  0.369800  0.921400  0.364700  1.0  0.1099
  H  H32  1  0.542700  0.983600  0.366400  1.0  0.1067
  H  H33  1  0.203300  0.382700  0.455800  1.0  0.1129
  H  H34  1  0.352900  0.353500  0.379400  1.0  0.113
  H  H35  1  0.616400  0.428600  0.593800  1.0  0.1039
  H  H36  1  0.467200  0.457900  0.670800  1.0  0.1104
  H  H37  1  0.147700  0.642900  0.113400  1.0  0.1082
  H  H38  1  0.320200  0.581500  0.115600  1.0  0.1135
  H  H39  1  0.130200  0.421400  0.135300  1.0  0.109
  H  H40  1  0.957300  0.483600  0.133600  1.0  0.1067
  H  H41  1  0.296700  0.882700  0.044200  1.0  0.1114
  H  H42  1  0.147100  0.853500  0.120600  1.0  0.1129
  H  H43  1  0.883600  0.928600  0.906200  1.0  0.1039
  H  H44  1  0.032800  0.957900  0.829200  1.0  0.1103
  H  H45  1  0.647700  0.857100  0.613400  1.0  0.108
  H  H46  1  0.820200  0.918500  0.615600  1.0  0.1127
  H  H47  1  0.630200  0.078600  0.635300  1.0  0.1088
  H  H48  1  0.457300  0.016400  0.633600  1.0  0.1066
  H  H49  1  0.796700  0.617300  0.544200  1.0  0.1115
  H  H50  1  0.647100  0.646500  0.620600  1.0  0.1127
  H  H51  1  0.383600  0.571400  0.406200  1.0  0.104
  H  H52  1  0.532800  0.542100  0.329200  1.0  0.1105
  H  H53  1  0.852300  0.357100  0.886600  1.0  0.1078
  H  H54  1  0.679800  0.418500  0.884400  1.0  0.1127
  H  H55  1  0.869800  0.578600  0.864700  1.0  0.1095
  H  H56  1  0.042700  0.516400  0.866400  1.0  0.1068
  H  H57  1  0.703300  0.117300  0.955800  1.0  0.1132
  H  H58  1  0.852900  0.146500  0.879400  1.0  0.1129
  H  H59  1  0.116400  0.071400  0.093800  1.0  0.1038
  H  H60  1  0.967200  0.042100  0.170800  1.0  0.1099
  C  C61  1  0.465100  0.069800  0.376600  1.0  -0.2317
  C  C62  1  0.356800  0.097600  0.381800  1.0  -0.0706
  C  C63  1  0.253700  0.061000  0.380400  1.0  -0.0695
  C  C64  1  0.257400  0.994800  0.373200  1.0  -0.2591
  C  C65  1  0.365100  0.966800  0.368700  1.0  -0.0723
  C  C66  1  0.468600  0.004000  0.370100  1.0  -0.0616
  C  C67  1  0.319200  0.422800  0.570600  1.0  -0.2038
  C  C68  1  0.287500  0.392100  0.484600  1.0  -0.0367
  C  C69  1  0.376800  0.374500  0.439000  1.0  -0.0588
  C  C70  1  0.499600  0.387300  0.479900  1.0  -0.1837
  C  C71  1  0.532200  0.418800  0.565600  1.0  -0.0508
  C  C72  1  0.443300  0.436500  0.611600  1.0  -0.0496
  C  C73  1  0.034900  0.569800  0.123400  1.0  -0.2304
  C  C74  1  0.143200  0.597600  0.118200  1.0  -0.071
  C  C75  1  0.246300  0.561000  0.119600  1.0  -0.0679
  C  C76  1  0.242600  0.494800  0.126800  1.0  -0.2599
  C  C77  1  0.134900  0.466800  0.131300  1.0  -0.0719
  C  C78  1  0.031400  0.504000  0.129900  1.0  -0.0606
  C  C79  1  0.180800  0.922800  0.929400  1.0  -0.2029
  C  C80  1  0.212500  0.892100  0.015400  1.0  -0.0349
  C  C81  1  0.123200  0.874500  0.061000  1.0  -0.0591
  C  C82  1  0.000400  0.887300  0.020100  1.0  -0.1837
  C  C83  1  0.967800  0.918800  0.934400  1.0  -0.0512
  C  C84  1  0.056700  0.936500  0.888400  1.0  -0.0505
  C  C85  1  0.534900  0.930200  0.623400  1.0  -0.2299
  C  C86  1  0.643200  0.902400  0.618200  1.0  -0.0729
  C  C87  1  0.746300  0.939000  0.619600  1.0  -0.0674
  C  C88  1  0.742600  0.005200  0.626800  1.0  -0.2599
  C  C89  1  0.634900  0.033200  0.631300  1.0  -0.073
  C  C90  1  0.531400  0.996000  0.629900  1.0  -0.0611
  C  C91  1  0.680800  0.577200  0.429400  1.0  -0.2032
  C  C92  1  0.712500  0.607900  0.515400  1.0  -0.0345
  C  C93  1  0.623200  0.625500  0.561000  1.0  -0.0588
  C  C94  1  0.500400  0.612700  0.520100  1.0  -0.1832
  C  C95  1  0.467800  0.581200  0.434400  1.0  -0.052
  C  C96  1  0.556700  0.563500  0.388400  1.0  -0.0505
  C  C97  1  0.965100  0.430200  0.876600  1.0  -0.2311
  C  C98  1  0.856800  0.402400  0.881800  1.0  -0.0722
  C  C99  1  0.753700  0.439000  0.880400  1.0  -0.0671
  C  C100  1  0.757400  0.505200  0.873200  1.0  -0.2588
  C  C101  1  0.865100  0.533200  0.868700  1.0  -0.0726
  C  C102  1  0.968600  0.496000  0.870100  1.0  -0.0616
  C  C103  1  0.819200  0.077200  0.070600  1.0  -0.2035
  C  C104  1  0.787500  0.107900  0.984600  1.0  -0.0369
  C  C105  1  0.876800  0.125500  0.939000  1.0  -0.0593
  C  C106  1  0.999600  0.112700  0.979900  1.0  -0.1848
  C  C107  1  0.032200  0.081200  0.065600  1.0  -0.0513
  C  C108  1  0.943300  0.063500  0.111600  1.0  -0.0494
  O  O109  1  0.619100  0.161240  0.468300  1.0  -0.8713
  O  O110  1  0.706000  0.069670  0.389200  1.0  -0.9621
  O  O111  1  0.580500  0.157860  0.292800  1.0  -0.5236
  O  O112  1  0.266200  0.482460  0.717000  1.0  -0.9012
  O  O113  1  0.126900  0.388750  0.643100  1.0  -0.8482
  O  O114  1  0.107800  0.487800  0.557400  1.0  -0.999
  O  O115  1  0.015600  0.962080  0.291400  1.0  -0.8462
  O  O116  1  0.079000  0.969480  0.460600  1.0  -0.9676
  O  O117  1  0.164500  0.877490  0.379900  1.0  -0.9191
  O  O118  1  0.557400  0.366610  0.315200  1.0  -0.5572
  O  O119  1  0.655100  0.296060  0.449000  1.0  -0.9005
  O  O120  1  0.720700  0.412970  0.454100  1.0  -0.9021
  O  O121  1  0.880900  0.661240  0.031700  1.0  -0.8713
  O  O122  1  0.794000  0.569670  0.110800  1.0  -0.9592
  O  O123  1  0.919500  0.657860  0.207200  1.0  -0.5246
  O  O124  1  0.233800  0.982460  0.783000  1.0  -0.9013
  O  O125  1  0.373100  0.888750  0.856900  1.0  -0.8465
  O  O126  1  0.392200  0.987800  0.942600  1.0  -0.9979
  O  O127  1  0.484400  0.462080  0.208600  1.0  -0.8471
  O  O128  1  0.421000  0.469480  0.039400  1.0  -0.9675
  O  O129  1  0.335500  0.377490  0.120100  1.0  -0.9191
  O  O130  1  0.942600  0.866610  0.184800  1.0  -0.5593
  O  O131  1  0.844900  0.796060  0.051000  1.0  -0.9013
  O  O132  1  0.779300  0.912970  0.045900  1.0  -0.9017
  O  O133  1  0.380900  0.838760  0.531700  1.0  -0.8709
  O  O134  1  0.294000  0.930330  0.610800  1.0  -0.9593
  O  O135  1  0.419500  0.842140  0.707200  1.0  -0.5252
  O  O136  1  0.733800  0.517540  0.283000  1.0  -0.9009
  O  O137  1  0.873100  0.611250  0.356900  1.0  -0.8469
  O  O138  1  0.892200  0.512200  0.442600  1.0  -0.9981
  O  O139  1  0.984400  0.037920  0.708600  1.0  -0.8466
  O  O140  1  0.921000  0.030520  0.539400  1.0  -0.968
  O  O141  1  0.835500  0.122510  0.620100  1.0  -0.9183
  O  O142  1  0.442600  0.633390  0.684800  1.0  -0.5588
  O  O143  1  0.344900  0.703940  0.551000  1.0  -0.9019
  O  O144  1  0.279300  0.587030  0.545900  1.0  -0.9025
  O  O145  1  0.119100  0.338760  0.968300  1.0  -0.8713
  O  O146  1  0.206000  0.430330  0.889200  1.0  -0.9619
  O  O147  1  0.080500  0.342140  0.792800  1.0  -0.5228
  O  O148  1  0.766200  0.017540  0.217000  1.0  -0.8998
  O  O149  1  0.626900  0.111250  0.143100  1.0  -0.8488
  O  O150  1  0.607800  0.012200  0.057400  1.0  -0.9991
  O  O151  1  0.515600  0.537920  0.791400  1.0  -0.846
  O  O152  1  0.579000  0.530520  0.960600  1.0  -0.968
  O  O153  1  0.664500  0.622510  0.879900  1.0  -0.918
  O  O154  1  0.057400  0.133390  0.815200  1.0  -0.5593
  O  O155  1  0.155100  0.203940  0.949000  1.0  -0.9014
  O  O156  1  0.220700  0.087030  0.954100  1.0  -0.9027
  F  F157  1  0.866500  0.326950  0.594400  1.0  -0.6188
  F  F158  1  0.633500  0.826950  0.905600  1.0  -0.6196
  F  F159  1  0.133500  0.673050  0.405600  1.0  -0.618
  F  F160  1  0.366500  0.173050  0.094400  1.0  -0.6177
