# generated using pymatgen
data_Th2P4H8C12O12F
_symmetry_space_group_name_H-M   'P 1'
_cell_length_a   10.16110000
_cell_length_b   10.24900000
_cell_length_c   20.57820000
_cell_angle_alpha   90.00000000
_cell_angle_beta   90.00000000
_cell_angle_gamma   95.86300000
_symmetry_Int_Tables_number   1
_chemical_formula_structural   Th2P4H8C12O12F
_chemical_formula_sum   'Th8 P16 H32 C48 O48 F4'
_cell_volume   2131.82642430
_cell_formula_units_Z   4
loop_
 _symmetry_equiv_pos_site_id
 _symmetry_equiv_pos_as_xyz
  1  'x, y, z'
loop_
 _atom_site_type_symbol
 _atom_site_label
 _atom_site_symmetry_multiplicity
 _atom_site_fract_x
 _atom_site_fract_y
 _atom_site_fract_z
 _atom_site_occupancy
 _atom_site_charge
  Th  Th1  1  0.999180  0.128140  0.406900  1.0  2.3655
  Th  Th2  1  0.993190  0.171450  0.187520  1.0  2.3823
  Th  Th3  1  0.000820  0.371860  0.906900  1.0  2.3666
  Th  Th4  1  0.006810  0.328550  0.687520  1.0  2.3813
  Th  Th5  1  0.000820  0.871860  0.593100  1.0  2.3669
  Th  Th6  1  0.006810  0.828550  0.812480  1.0  2.3856
  Th  Th7  1  0.999180  0.628140  0.093100  1.0  2.3658
  Th  Th8  1  0.993190  0.671450  0.312480  1.0  2.3859
  P  P9  1  0.801190  0.330900  0.308570  1.0  1.4729
  P  P10  1  0.196070  0.872000  0.435310  1.0  1.4858
  P  P11  1  0.182250  0.390380  0.306300  1.0  1.5192
  P  P12  1  0.816150  0.801500  0.437030  1.0  1.4875
  P  P13  1  0.198810  0.169100  0.808570  1.0  1.4754
  P  P14  1  0.803930  0.628000  0.935310  1.0  1.488
  P  P15  1  0.817750  0.109620  0.806300  1.0  1.5199
  P  P16  1  0.183850  0.698500  0.937030  1.0  1.4884
  P  P17  1  0.198810  0.669100  0.691430  1.0  1.4753
  P  P18  1  0.803930  0.128000  0.564690  1.0  1.4891
  P  P19  1  0.817750  0.609620  0.693700  1.0  1.5193
  P  P20  1  0.183850  0.198500  0.562970  1.0  1.4895
  P  P21  1  0.801190  0.830900  0.191430  1.0  1.4732
  P  P22  1  0.196070  0.372000  0.064690  1.0  1.4884
  P  P23  1  0.182250  0.890380  0.193700  1.0  1.5202
  P  P24  1  0.816150  0.301500  0.062970  1.0  1.489
  H  H25  1  0.399000  0.865700  0.338900  1.0  0.1496
  H  H26  1  0.622900  0.836500  0.340100  1.0  0.1474
  H  H27  1  0.615400  0.809200  0.536000  1.0  0.1405
  H  H28  1  0.389500  0.839100  0.536400  1.0  0.1538
  H  H29  1  0.565600  0.156400  0.325900  1.0  0.1513
  H  H30  1  0.339900  0.178000  0.325500  1.0  0.149
  H  H31  1  0.417800  0.569100  0.294300  1.0  0.1403
  H  H32  1  0.644100  0.547000  0.293200  1.0  0.1521
  H  H33  1  0.601000  0.634300  0.838900  1.0  0.1499
  H  H34  1  0.377100  0.663500  0.840100  1.0  0.1478
  H  H35  1  0.384600  0.690800  0.036000  1.0  0.1402
  H  H36  1  0.610500  0.660900  0.036400  1.0  0.1539
  H  H37  1  0.434400  0.343600  0.825900  1.0  0.1513
  H  H38  1  0.660100  0.322000  0.825500  1.0  0.1488
  H  H39  1  0.582200  0.930900  0.794300  1.0  0.1404
  H  H40  1  0.355900  0.953000  0.793200  1.0  0.1537
  H  H41  1  0.601000  0.134300  0.661100  1.0  0.1501
  H  H42  1  0.377100  0.163500  0.659900  1.0  0.1481
  H  H43  1  0.384600  0.190800  0.464000  1.0  0.1409
  H  H44  1  0.610500  0.160900  0.463600  1.0  0.1534
  H  H45  1  0.434400  0.843600  0.674100  1.0  0.1514
  H  H46  1  0.660100  0.822000  0.674500  1.0  0.1487
  H  H47  1  0.582200  0.430900  0.705700  1.0  0.1403
  H  H48  1  0.355900  0.453000  0.706800  1.0  0.1535
  H  H49  1  0.399000  0.365700  0.161100  1.0  0.15
  H  H50  1  0.622900  0.336500  0.159900  1.0  0.1483
  H  H51  1  0.615400  0.309200  0.964000  1.0  0.1407
  H  H52  1  0.389500  0.339100  0.963600  1.0  0.1535
  H  H53  1  0.565600  0.656400  0.174100  1.0  0.1513
  H  H54  1  0.339900  0.678000  0.174500  1.0  0.1489
  H  H55  1  0.417800  0.069100  0.205700  1.0  0.1405
  H  H56  1  0.644100  0.047000  0.206800  1.0  0.1504
  C  C57  1  0.371400  0.854300  0.437400  1.0  -0.2379
  C  C58  1  0.442500  0.854300  0.379000  1.0  0.0161
  C  C59  1  0.575700  0.837600  0.379900  1.0  0.031
  C  C60  1  0.641200  0.822600  0.437900  1.0  -0.2752
  C  C61  1  0.571100  0.821500  0.496200  1.0  0.0118
  C  C62  1  0.436500  0.838400  0.496500  1.0  -0.0082
  C  C63  1  0.627300  0.350700  0.309800  1.0  -0.3366
  C  C64  1  0.535400  0.240000  0.319200  1.0  0.0035
  C  C65  1  0.401500  0.252800  0.318600  1.0  0.0011
  C  C66  1  0.355900  0.376500  0.307800  1.0  -0.3167
  C  C67  1  0.447500  0.484800  0.299800  1.0  0.0253
  C  C68  1  0.582500  0.472100  0.299900  1.0  0.0171
  C  C69  1  0.628600  0.645700  0.937400  1.0  -0.2352
  C  C70  1  0.557500  0.645700  0.879000  1.0  0.0162
  C  C71  1  0.424300  0.662400  0.879900  1.0  0.0254
  C  C72  1  0.358800  0.677400  0.937900  1.0  -0.278
  C  C73  1  0.428900  0.678500  0.996200  1.0  0.0153
  C  C74  1  0.563500  0.661600  0.996500  1.0  -0.0119
  C  C75  1  0.372700  0.149300  0.809800  1.0  -0.3376
  C  C76  1  0.464600  0.260000  0.819200  1.0  0.0096
  C  C77  1  0.598500  0.247200  0.818600  1.0  0.0028
  C  C78  1  0.644100  0.123500  0.807800  1.0  -0.3165
  C  C79  1  0.552500  0.015200  0.799800  1.0  0.0254
  C  C80  1  0.417500  0.027900  0.799900  1.0  0.0107
  C  C81  1  0.628600  0.145700  0.562600  1.0  -0.2351
  C  C82  1  0.557500  0.145700  0.621000  1.0  0.0131
  C  C83  1  0.424300  0.162400  0.620100  1.0  0.0257
  C  C84  1  0.358800  0.177400  0.562100  1.0  -0.2782
  C  C85  1  0.428900  0.178500  0.503800  1.0  0.0162
  C  C86  1  0.563500  0.161600  0.503500  1.0  -0.0101
  C  C87  1  0.372700  0.649300  0.690200  1.0  -0.3368
  C  C88  1  0.464600  0.760000  0.680800  1.0  0.009
  C  C89  1  0.598500  0.747200  0.681400  1.0  0.0027
  C  C90  1  0.644100  0.623500  0.692200  1.0  -0.316
  C  C91  1  0.552500  0.515200  0.700200  1.0  0.0252
  C  C92  1  0.417500  0.527900  0.700100  1.0  0.0104
  C  C93  1  0.371400  0.354300  0.062600  1.0  -0.2378
  C  C94  1  0.442500  0.354300  0.121000  1.0  0.0166
  C  C95  1  0.575700  0.337600  0.120100  1.0  0.0305
  C  C96  1  0.641200  0.322600  0.062100  1.0  -0.2753
  C  C97  1  0.571100  0.321500  0.003800  1.0  0.0124
  C  C98  1  0.436500  0.338400  0.003500  1.0  -0.006
  C  C99  1  0.627300  0.850700  0.190200  1.0  -0.3353
  C  C100  1  0.535400  0.740000  0.180800  1.0  0.0035
  C  C101  1  0.401500  0.752800  0.181400  1.0  0.0012
  C  C102  1  0.355900  0.876500  0.192200  1.0  -0.3167
  C  C103  1  0.447500  0.984800  0.200200  1.0  0.025
  C  C104  1  0.582500  0.972100  0.200100  1.0  0.0162
  O  O105  1  0.829400  0.266500  0.243600  1.0  -0.8515
  O  O106  1  0.828400  0.244100  0.367400  1.0  -0.8571
  O  O107  1  0.874200  0.468100  0.315400  1.0  -0.8547
  O  O108  1  0.176500  0.996600  0.399000  1.0  -0.8
  O  O109  1  0.145300  0.878300  0.504800  1.0  -0.8906
  O  O110  1  0.130800  0.750800  0.399900  1.0  -0.8686
  O  O111  1  0.127600  0.329900  0.243300  1.0  -0.8896
  O  O112  1  0.123100  0.313100  0.365700  1.0  -0.87
  O  O113  1  0.164400  0.535600  0.312300  1.0  -0.8482
  O  O114  1  0.863100  0.791000  0.506500  1.0  -0.8613
  O  O115  1  0.890300  0.916700  0.400600  1.0  -0.8848
  O  O116  1  0.831300  0.676700  0.398400  1.0  -0.8183
  O  O117  1  0.170600  0.233500  0.743600  1.0  -0.8508
  O  O118  1  0.171600  0.255900  0.867400  1.0  -0.8575
  O  O119  1  0.125800  0.031900  0.815400  1.0  -0.8524
  O  O120  1  0.823500  0.503400  0.899000  1.0  -0.7996
  O  O121  1  0.854700  0.621700  0.004800  1.0  -0.8911
  O  O122  1  0.869200  0.749200  0.899900  1.0  -0.8693
  O  O123  1  0.872400  0.170100  0.743300  1.0  -0.8905
  O  O124  1  0.876900  0.186900  0.865700  1.0  -0.8703
  O  O125  1  0.835600  0.964400  0.812300  1.0  -0.8488
  O  O126  1  0.136900  0.709000  0.006500  1.0  -0.8632
  O  O127  1  0.109700  0.583300  0.900600  1.0  -0.8847
  O  O128  1  0.168700  0.823300  0.898400  1.0  -0.8181
  O  O129  1  0.170600  0.733500  0.756400  1.0  -0.8518
  O  O130  1  0.171600  0.755900  0.632600  1.0  -0.8576
  O  O131  1  0.125800  0.531900  0.684600  1.0  -0.8542
  O  O132  1  0.823500  0.003400  0.601000  1.0  -0.7997
  O  O133  1  0.854700  0.121700  0.495200  1.0  -0.8876
  O  O134  1  0.869200  0.249200  0.600100  1.0  -0.8693
  O  O135  1  0.872400  0.670100  0.756700  1.0  -0.8907
  O  O136  1  0.876900  0.686900  0.634300  1.0  -0.8694
  O  O137  1  0.835600  0.464400  0.687700  1.0  -0.8497
  O  O138  1  0.136900  0.209000  0.493500  1.0  -0.8618
  O  O139  1  0.109700  0.083300  0.599400  1.0  -0.8863
  O  O140  1  0.168700  0.323300  0.601600  1.0  -0.8187
  O  O141  1  0.829400  0.766500  0.256400  1.0  -0.8522
  O  O142  1  0.828400  0.744100  0.132600  1.0  -0.8568
  O  O143  1  0.874200  0.968100  0.184600  1.0  -0.8559
  O  O144  1  0.176500  0.496600  0.101000  1.0  -0.8001
  O  O145  1  0.145300  0.378300  0.995200  1.0  -0.8882
  O  O146  1  0.130800  0.250800  0.100100  1.0  -0.8684
  O  O147  1  0.127600  0.829900  0.256700  1.0  -0.8889
  O  O148  1  0.123100  0.813100  0.134300  1.0  -0.8696
  O  O149  1  0.164400  0.035600  0.187700  1.0  -0.8497
  O  O150  1  0.863100  0.291000  0.993500  1.0  -0.8592
  O  O151  1  0.890300  0.416700  0.099400  1.0  -0.8866
  O  O152  1  0.831300  0.176700  0.101600  1.0  -0.8185
  F  F153  1  0.001900  0.091800  0.295600  1.0  -0.5392
  F  F154  1  0.998100  0.408200  0.795600  1.0  -0.5386
  F  F155  1  0.998100  0.908200  0.704400  1.0  -0.5391
  F  F156  1  0.001900  0.591800  0.204400  1.0  -0.5394
