# generated using pymatgen
data_GaH4(C3O2)4
_symmetry_space_group_name_H-M   'P 1'
_cell_length_a   27.94300000
_cell_length_b   27.94300000
_cell_length_c   17.70700000
_cell_angle_alpha   90.00000000
_cell_angle_beta   90.00000000
_cell_angle_gamma   120.00000000
_symmetry_Int_Tables_number   1
_chemical_formula_structural   GaH4(C3O2)4
_chemical_formula_sum   'Ga18 H72 C216 O144'
_cell_volume   11973.51549299
_cell_formula_units_Z   18
loop_
 _symmetry_equiv_pos_site_id
 _symmetry_equiv_pos_as_xyz
  1  'x, y, z'
loop_
 _atom_site_type_symbol
 _atom_site_label
 _atom_site_symmetry_multiplicity
 _atom_site_fract_x
 _atom_site_fract_y
 _atom_site_fract_z
 _atom_site_occupancy
 _atom_site_charge
  Ga  Ga1  1  0.881430  0.387690  0.855680  1.0  1.6277
  Ga  Ga2  1  0.548100  0.721030  0.189010  1.0  1.6275
  Ga  Ga3  1  0.214770  0.054360  0.522350  1.0  1.6274
  Ga  Ga4  1  0.612310  0.493740  0.855680  1.0  1.6277
  Ga  Ga5  1  0.278970  0.827070  0.189010  1.0  1.6277
  Ga  Ga6  1  0.945640  0.160410  0.522350  1.0  1.6277
  Ga  Ga7  1  0.506260  0.118570  0.855680  1.0  1.6275
  Ga  Ga8  1  0.172930  0.451900  0.189010  1.0  1.6275
  Ga  Ga9  1  0.839590  0.785230  0.522350  1.0  1.6276
  Ga  Ga10  1  0.612310  0.118570  0.355680  1.0  1.6244
  Ga  Ga11  1  0.278970  0.451900  0.689010  1.0  1.6241
  Ga  Ga12  1  0.945640  0.785230  0.022350  1.0  1.624
  Ga  Ga13  1  0.506260  0.387690  0.355680  1.0  1.6244
  Ga  Ga14  1  0.172930  0.721030  0.689010  1.0  1.6243
  Ga  Ga15  1  0.839590  0.054360  0.022350  1.0  1.6244
  Ga  Ga16  1  0.881430  0.493740  0.355680  1.0  1.6243
  Ga  Ga17  1  0.548100  0.827070  0.689010  1.0  1.6243
  Ga  Ga18  1  0.214770  0.160410  0.022350  1.0  1.6243
  H  H19  1  0.896300  0.463900  0.582800  1.0  0.1061
  H  H20  1  0.034100  0.610300  0.554400  1.0  0.1055
  H  H21  1  0.999300  0.539500  0.757900  1.0  0.1084
  H  H22  1  0.719500  0.427900  0.858800  1.0  0.1008
  H  H23  1  0.562970  0.797230  0.916130  1.0  0.1061
  H  H24  1  0.700770  0.943630  0.887730  1.0  0.1056
  H  H25  1  0.665970  0.872830  0.091230  1.0  0.1084
  H  H26  1  0.386170  0.761230  0.192130  1.0  0.1008
  H  H27  1  0.229630  0.130570  0.249470  1.0  0.1061
  H  H28  1  0.367430  0.276970  0.221070  1.0  0.1055
  H  H29  1  0.332630  0.206170  0.424570  1.0  0.1084
  H  H30  1  0.052830  0.094570  0.525470  1.0  0.1008
  H  H31  1  0.536100  0.432400  0.582800  1.0  0.1061
  H  H32  1  0.389700  0.423800  0.554400  1.0  0.1058
  H  H33  1  0.460500  0.459800  0.757900  1.0  0.1078
  H  H34  1  0.572100  0.291600  0.858800  1.0  0.1001
  H  H35  1  0.202770  0.765730  0.916130  1.0  0.1061
  H  H36  1  0.056370  0.757130  0.887730  1.0  0.1058
  H  H37  1  0.127170  0.793130  0.091230  1.0  0.1078
  H  H38  1  0.238770  0.624930  0.192130  1.0  0.1001
  H  H39  1  0.869430  0.099070  0.249470  1.0  0.1061
  H  H40  1  0.723030  0.090470  0.221070  1.0  0.1058
  H  H41  1  0.793830  0.126470  0.424570  1.0  0.1078
  H  H42  1  0.905430  0.958270  0.525470  1.0  0.1001
  H  H43  1  0.567600  0.103700  0.582800  1.0  0.1067
  H  H44  1  0.576200  0.965900  0.554400  1.0  0.1051
  H  H45  1  0.540200  0.000700  0.757900  1.0  0.1088
  H  H46  1  0.708400  0.280500  0.858800  1.0  0.0997
  H  H47  1  0.234270  0.437030  0.916130  1.0  0.1067
  H  H48  1  0.242870  0.299230  0.887730  1.0  0.1051
  H  H49  1  0.206870  0.334030  0.091230  1.0  0.1088
  H  H50  1  0.375070  0.613830  0.192130  1.0  0.0997
  H  H51  1  0.900930  0.770370  0.249470  1.0  0.1067
  H  H52  1  0.909530  0.632570  0.221070  1.0  0.1051
  H  H53  1  0.873530  0.667370  0.424570  1.0  0.1088
  H  H54  1  0.041730  0.947170  0.525470  1.0  0.0997
  H  H55  1  0.536100  0.103700  0.082800  1.0  0.1066
  H  H56  1  0.389700  0.965900  0.054400  1.0  0.1052
  H  H57  1  0.460500  0.000700  0.257900  1.0  0.1086
  H  H58  1  0.572100  0.280500  0.358800  1.0  0.0995
  H  H59  1  0.202770  0.437030  0.416130  1.0  0.1066
  H  H60  1  0.056370  0.299230  0.387730  1.0  0.1053
  H  H61  1  0.127170  0.334030  0.591230  1.0  0.1086
  H  H62  1  0.238770  0.613830  0.692130  1.0  0.0995
  H  H63  1  0.869430  0.770370  0.749470  1.0  0.1066
  H  H64  1  0.723030  0.632570  0.721070  1.0  0.1052
  H  H65  1  0.793830  0.667370  0.924570  1.0  0.1086
  H  H66  1  0.905430  0.947170  0.025470  1.0  0.0995
  H  H67  1  0.567600  0.463900  0.082800  1.0  0.1062
  H  H68  1  0.576200  0.610300  0.054400  1.0  0.1054
  H  H69  1  0.540200  0.539500  0.257900  1.0  0.1084
  H  H70  1  0.708400  0.427900  0.358800  1.0  0.1007
  H  H71  1  0.234270  0.797230  0.416130  1.0  0.1062
  H  H72  1  0.242870  0.943630  0.387730  1.0  0.1054
  H  H73  1  0.206870  0.872830  0.591230  1.0  0.1084
  H  H74  1  0.375070  0.761230  0.692130  1.0  0.1007
  H  H75  1  0.900930  0.130570  0.749470  1.0  0.1062
  H  H76  1  0.909530  0.276970  0.721070  1.0  0.1054
  H  H77  1  0.873530  0.206170  0.924570  1.0  0.1084
  H  H78  1  0.041730  0.094570  0.025470  1.0  0.1006
  H  H79  1  0.896300  0.432400  0.082800  1.0  0.1064
  H  H80  1  0.034100  0.423800  0.054400  1.0  0.1056
  H  H81  1  0.999300  0.459800  0.257900  1.0  0.1077
  H  H82  1  0.719500  0.291600  0.358800  1.0  0.1001
  H  H83  1  0.562970  0.765730  0.416130  1.0  0.1064
  H  H84  1  0.700770  0.757130  0.387730  1.0  0.1056
  H  H85  1  0.665970  0.793130  0.591230  1.0  0.1077
  H  H86  1  0.386170  0.624930  0.692130  1.0  0.1001
  H  H87  1  0.229630  0.099070  0.749470  1.0  0.1064
  H  H88  1  0.367430  0.090470  0.721070  1.0  0.1056
  H  H89  1  0.332630  0.126470  0.924570  1.0  0.1077
  H  H90  1  0.052830  0.958270  0.025470  1.0  0.1001
  C  C91  1  0.941280  0.493810  0.679000  1.0  -0.2003
  C  C92  1  0.928490  0.493350  0.602400  1.0  0.0259
  C  C93  1  0.963730  0.536700  0.555500  1.0  -0.1771
  C  C94  1  0.011060  0.580870  0.585500  1.0  0.0328
  C  C95  1  0.024490  0.581940  0.660100  1.0  -0.1922
  C  C96  1  0.990090  0.538750  0.707300  1.0  0.0021
  C  C97  1  0.904500  0.447000  0.728900  1.0  0.6859
  C  C98  1  0.951200  0.534650  0.473100  1.0  0.6833
  C  C99  1  0.077000  0.626300  0.692800  1.0  0.6727
  C  C100  1  0.723690  0.358000  0.860800  1.0  -0.1838
  C  C101  1  0.697900  0.389500  0.860000  1.0  0.0083
  C  C102  1  0.785700  0.386700  0.862500  1.0  0.6901
  C  C103  1  0.607950  0.827140  0.012330  1.0  -0.2003
  C  C104  1  0.595160  0.826680  0.935730  1.0  0.0259
  C  C105  1  0.630400  0.870030  0.888830  1.0  -0.1771
  C  C106  1  0.677730  0.914200  0.918830  1.0  0.0328
  C  C107  1  0.691160  0.915270  0.993430  1.0  -0.1922
  C  C108  1  0.656760  0.872080  0.040630  1.0  0.0021
  C  C109  1  0.571170  0.780330  0.062230  1.0  0.6857
  C  C110  1  0.617870  0.867980  0.806430  1.0  0.6833
  C  C111  1  0.743670  0.959630  0.026130  1.0  0.6728
  C  C112  1  0.390360  0.691330  0.194130  1.0  -0.1838
  C  C113  1  0.364570  0.722830  0.193330  1.0  0.0083
  C  C114  1  0.452370  0.720030  0.195830  1.0  0.6901
  C  C115  1  0.274610  0.160480  0.345670  1.0  -0.2003
  C  C116  1  0.261820  0.160020  0.269070  1.0  0.0259
  C  C117  1  0.297060  0.203370  0.222170  1.0  -0.1771
  C  C118  1  0.344390  0.247540  0.252170  1.0  0.0328
  C  C119  1  0.357820  0.248610  0.326770  1.0  -0.1922
  C  C120  1  0.323420  0.205420  0.373970  1.0  0.0021
  C  C121  1  0.237830  0.113670  0.395570  1.0  0.6859
  C  C122  1  0.284530  0.201320  0.139770  1.0  0.6833
  C  C123  1  0.410330  0.292970  0.359470  1.0  0.6727
  C  C124  1  0.057020  0.024670  0.527470  1.0  -0.1838
  C  C125  1  0.031230  0.056170  0.526670  1.0  0.0083
  C  C126  1  0.119030  0.053370  0.529170  1.0  0.6901
  C  C127  1  0.506190  0.447470  0.679000  1.0  -0.2006
  C  C128  1  0.506650  0.435140  0.602400  1.0  0.0254
  C  C129  1  0.463300  0.427030  0.555500  1.0  -0.1772
  C  C130  1  0.419130  0.430190  0.585500  1.0  0.0327
  C  C131  1  0.418060  0.442550  0.660100  1.0  -0.193
  C  C132  1  0.461250  0.451340  0.707300  1.0  0.0012
  C  C133  1  0.553000  0.457500  0.728900  1.0  0.6835
  C  C134  1  0.465350  0.416550  0.473100  1.0  0.6837
  C  C135  1  0.373700  0.450700  0.692800  1.0  0.6726
  C  C136  1  0.642000  0.365690  0.860800  1.0  -0.183
  C  C137  1  0.610500  0.308400  0.860000  1.0  0.009
  C  C138  1  0.613300  0.399000  0.862500  1.0  0.6921
  C  C139  1  0.172860  0.780800  0.012330  1.0  -0.2006
  C  C140  1  0.173320  0.768470  0.935730  1.0  0.0254
  C  C141  1  0.129970  0.760360  0.888830  1.0  -0.1772
  C  C142  1  0.085800  0.763520  0.918830  1.0  0.0327
  C  C143  1  0.084730  0.775880  0.993430  1.0  -0.1931
  C  C144  1  0.127920  0.784670  0.040630  1.0  0.0012
  C  C145  1  0.219670  0.790830  0.062230  1.0  0.6835
  C  C146  1  0.132020  0.749880  0.806430  1.0  0.6837
  C  C147  1  0.040370  0.784030  0.026130  1.0  0.6726
  C  C148  1  0.308670  0.699020  0.194130  1.0  -0.183
  C  C149  1  0.277170  0.641730  0.193330  1.0  0.009
  C  C150  1  0.279970  0.732330  0.195830  1.0  0.6921
  C  C151  1  0.839520  0.114140  0.345670  1.0  -0.2006
  C  C152  1  0.839980  0.101810  0.269070  1.0  0.0253
  C  C153  1  0.796630  0.093700  0.222170  1.0  -0.1772
  C  C154  1  0.752460  0.096860  0.252170  1.0  0.0327
  C  C155  1  0.751390  0.109220  0.326770  1.0  -0.193
  C  C156  1  0.794580  0.118010  0.373970  1.0  0.0003
  C  C157  1  0.886330  0.124170  0.395570  1.0  0.6835
  C  C158  1  0.798680  0.083220  0.139770  1.0  0.6837
  C  C159  1  0.707030  0.117370  0.359470  1.0  0.6726
  C  C160  1  0.975330  0.032360  0.527470  1.0  -0.183
  C  C161  1  0.943830  0.975070  0.526670  1.0  0.009
  C  C162  1  0.946630  0.065670  0.529170  1.0  0.6921
  C  C163  1  0.552530  0.058720  0.679000  1.0  -0.1997
  C  C164  1  0.564860  0.071510  0.602400  1.0  0.0255
  C  C165  1  0.572970  0.036270  0.555500  1.0  -0.1771
  C  C166  1  0.569810  0.988940  0.585500  1.0  0.0323
  C  C167  1  0.557450  0.975510  0.660100  1.0  -0.1928
  C  C168  1  0.548660  0.009910  0.707300  1.0  0.0017
  C  C169  1  0.542500  0.095500  0.728900  1.0  0.6844
  C  C170  1  0.583450  0.048800  0.473100  1.0  0.6814
  C  C171  1  0.549300  0.923000  0.692800  1.0  0.674
  C  C172  1  0.634310  0.276310  0.860800  1.0  -0.1815
  C  C173  1  0.691600  0.302100  0.860000  1.0  0.0104
  C  C174  1  0.601000  0.214300  0.862500  1.0  0.6922
  C  C175  1  0.219200  0.392050  0.012330  1.0  -0.1997
  C  C176  1  0.231530  0.404840  0.935730  1.0  0.0256
  C  C177  1  0.239640  0.369600  0.888830  1.0  -0.1771
  C  C178  1  0.236480  0.322270  0.918830  1.0  0.0323
  C  C179  1  0.224120  0.308840  0.993430  1.0  -0.1929
  C  C180  1  0.215330  0.343240  0.040630  1.0  0.0017
  C  C181  1  0.209170  0.428830  0.062230  1.0  0.6844
  C  C182  1  0.250120  0.382130  0.806430  1.0  0.6815
  C  C183  1  0.215970  0.256330  0.026130  1.0  0.674
  C  C184  1  0.300980  0.609640  0.194130  1.0  -0.1815
  C  C185  1  0.358270  0.635430  0.193330  1.0  0.0104
  C  C186  1  0.267670  0.547630  0.195830  1.0  0.6922
  C  C187  1  0.885860  0.725390  0.345670  1.0  -0.1997
  C  C188  1  0.898190  0.738180  0.269070  1.0  0.0256
  C  C189  1  0.906300  0.702940  0.222170  1.0  -0.1771
  C  C190  1  0.903140  0.655610  0.252170  1.0  0.0323
  C  C191  1  0.890780  0.642180  0.326770  1.0  -0.1928
  C  C192  1  0.881990  0.676580  0.373970  1.0  0.0014
  C  C193  1  0.875830  0.762170  0.395570  1.0  0.6843
  C  C194  1  0.916780  0.715470  0.139770  1.0  0.6814
  C  C195  1  0.882630  0.589670  0.359470  1.0  0.674
  C  C196  1  0.967640  0.942980  0.527470  1.0  -0.1815
  C  C197  1  0.024930  0.968770  0.526670  1.0  0.0104
  C  C198  1  0.934330  0.880970  0.529170  1.0  0.6922
  C  C199  1  0.506190  0.058720  0.179000  1.0  -0.2004
  C  C200  1  0.506650  0.071510  0.102400  1.0  0.0254
  C  C201  1  0.463300  0.036270  0.055500  1.0  -0.1773
  C  C202  1  0.419130  0.988940  0.085500  1.0  0.0319
  C  C203  1  0.418060  0.975510  0.160100  1.0  -0.1925
  C  C204  1  0.461250  0.009910  0.207300  1.0  0.0022
  C  C205  1  0.553000  0.095500  0.228900  1.0  0.6838
  C  C206  1  0.465350  0.048800  0.973100  1.0  0.6826
  C  C207  1  0.373700  0.923000  0.192800  1.0  0.6736
  C  C208  1  0.642000  0.276310  0.360800  1.0  -0.1817
  C  C209  1  0.610500  0.302100  0.360000  1.0  0.0097
  C  C210  1  0.613300  0.214300  0.362500  1.0  0.692
  C  C211  1  0.172860  0.392050  0.512330  1.0  -0.2004
  C  C212  1  0.173320  0.404840  0.435730  1.0  0.0254
  C  C213  1  0.129970  0.369600  0.388830  1.0  -0.1773
  C  C214  1  0.085800  0.322270  0.418830  1.0  0.0319
  C  C215  1  0.084730  0.308840  0.493430  1.0  -0.1925
  C  C216  1  0.127920  0.343240  0.540630  1.0  0.0022
  C  C217  1  0.219670  0.428830  0.562230  1.0  0.6837
  C  C218  1  0.132020  0.382130  0.306430  1.0  0.6826
  C  C219  1  0.040370  0.256330  0.526130  1.0  0.6736
  C  C220  1  0.308670  0.609640  0.694130  1.0  -0.1817
  C  C221  1  0.277170  0.635430  0.693330  1.0  0.0097
  C  C222  1  0.279970  0.547630  0.695830  1.0  0.692
  C  C223  1  0.839520  0.725390  0.845670  1.0  -0.2004
  C  C224  1  0.839980  0.738180  0.769070  1.0  0.0254
  C  C225  1  0.796630  0.702940  0.722170  1.0  -0.1773
  C  C226  1  0.752460  0.655610  0.752170  1.0  0.0319
  C  C227  1  0.751390  0.642180  0.826770  1.0  -0.1925
  C  C228  1  0.794580  0.676580  0.873970  1.0  0.0022
  C  C229  1  0.886330  0.762170  0.895570  1.0  0.6838
  C  C230  1  0.798680  0.715470  0.639770  1.0  0.6826
  C  C231  1  0.707030  0.589670  0.859470  1.0  0.6736
  C  C232  1  0.975330  0.942980  0.027470  1.0  -0.1818
  C  C233  1  0.943830  0.968770  0.026670  1.0  0.0097
  C  C234  1  0.946630  0.880970  0.029170  1.0  0.692
  C  C235  1  0.552530  0.493810  0.179000  1.0  -0.2008
  C  C236  1  0.564860  0.493350  0.102400  1.0  0.0262
  C  C237  1  0.572970  0.536700  0.055500  1.0  -0.177
  C  C238  1  0.569810  0.580870  0.085500  1.0  0.0329
  C  C239  1  0.557450  0.581940  0.160100  1.0  -0.192
  C  C240  1  0.548660  0.538750  0.207300  1.0  0.0017
  C  C241  1  0.542500  0.447000  0.228900  1.0  0.6846
  C  C242  1  0.583450  0.534650  0.973100  1.0  0.6835
  C  C243  1  0.549300  0.626300  0.192800  1.0  0.6739
  C  C244  1  0.634310  0.358000  0.360800  1.0  -0.1835
  C  C245  1  0.691600  0.389500  0.360000  1.0  0.0086
  C  C246  1  0.601000  0.386700  0.362500  1.0  0.6894
  C  C247  1  0.219200  0.827140  0.512330  1.0  -0.2008
  C  C248  1  0.231530  0.826680  0.435730  1.0  0.0262
  C  C249  1  0.239640  0.870030  0.388830  1.0  -0.177
  C  C250  1  0.236480  0.914200  0.418830  1.0  0.0329
  C  C251  1  0.224120  0.915270  0.493430  1.0  -0.192
  C  C252  1  0.215330  0.872080  0.540630  1.0  0.0017
  C  C253  1  0.209170  0.780330  0.562230  1.0  0.6846
  C  C254  1  0.250120  0.867980  0.306430  1.0  0.6835
  C  C255  1  0.215970  0.959630  0.526130  1.0  0.674
  C  C256  1  0.300980  0.691330  0.694130  1.0  -0.1835
  C  C257  1  0.358270  0.722830  0.693330  1.0  0.0086
  C  C258  1  0.267670  0.720030  0.695830  1.0  0.6894
  C  C259  1  0.885860  0.160480  0.845670  1.0  -0.2009
  C  C260  1  0.898190  0.160020  0.769070  1.0  0.0262
  C  C261  1  0.906300  0.203370  0.722170  1.0  -0.177
  C  C262  1  0.903140  0.247540  0.752170  1.0  0.0329
  C  C263  1  0.890780  0.248610  0.826770  1.0  -0.192
  C  C264  1  0.881990  0.205420  0.873970  1.0  0.0009
  C  C265  1  0.875830  0.113670  0.895570  1.0  0.6846
  C  C266  1  0.916780  0.201320  0.639770  1.0  0.6835
  C  C267  1  0.882630  0.292970  0.859470  1.0  0.6739
  C  C268  1  0.967640  0.024670  0.027470  1.0  -0.1835
  C  C269  1  0.024930  0.056170  0.026670  1.0  0.0086
  C  C270  1  0.934330  0.053370  0.029170  1.0  0.6894
  C  C271  1  0.941280  0.447470  0.179000  1.0  -0.1993
  C  C272  1  0.928490  0.435140  0.102400  1.0  0.0246
  C  C273  1  0.963730  0.427030  0.055500  1.0  -0.1772
  C  C274  1  0.011060  0.430190  0.085500  1.0  0.0329
  C  C275  1  0.024490  0.442550  0.160100  1.0  -0.1936
  C  C276  1  0.990090  0.451340  0.207300  1.0  0.0022
  C  C277  1  0.904500  0.457500  0.228900  1.0  0.6843
  C  C278  1  0.951200  0.416550  0.973100  1.0  0.6836
  C  C279  1  0.077000  0.450700  0.192800  1.0  0.6723
  C  C280  1  0.723690  0.365690  0.360800  1.0  -0.1837
  C  C281  1  0.697900  0.308400  0.360000  1.0  0.0108
  C  C282  1  0.785700  0.399000  0.362500  1.0  0.6923
  C  C283  1  0.607950  0.780800  0.512330  1.0  -0.1993
  C  C284  1  0.595160  0.768470  0.435730  1.0  0.0246
  C  C285  1  0.630400  0.760360  0.388830  1.0  -0.1772
  C  C286  1  0.677730  0.763520  0.418830  1.0  0.0329
  C  C287  1  0.691160  0.775880  0.493430  1.0  -0.1936
  C  C288  1  0.656760  0.784670  0.540630  1.0  0.0022
  C  C289  1  0.571170  0.790830  0.562230  1.0  0.6843
  C  C290  1  0.617870  0.749880  0.306430  1.0  0.6836
  C  C291  1  0.743670  0.784030  0.526130  1.0  0.6723
  C  C292  1  0.390360  0.699020  0.694130  1.0  -0.1837
  C  C293  1  0.364570  0.641730  0.693330  1.0  0.0108
  C  C294  1  0.452370  0.732330  0.695830  1.0  0.6923
  C  C295  1  0.274610  0.114140  0.845670  1.0  -0.1993
  C  C296  1  0.261820  0.101810  0.769070  1.0  0.0246
  C  C297  1  0.297060  0.093700  0.722170  1.0  -0.1772
  C  C298  1  0.344390  0.096860  0.752170  1.0  0.0329
  C  C299  1  0.357820  0.109220  0.826770  1.0  -0.1936
  C  C300  1  0.323420  0.118010  0.873970  1.0  0.0019
  C  C301  1  0.237830  0.124170  0.895570  1.0  0.6843
  C  C302  1  0.284530  0.083220  0.639770  1.0  0.6835
  C  C303  1  0.410330  0.117370  0.859470  1.0  0.6723
  C  C304  1  0.057020  0.032360  0.027470  1.0  -0.1837
  C  C305  1  0.031230  0.975070  0.026670  1.0  0.0108
  C  C306  1  0.119030  0.065670  0.029170  1.0  0.6923
  O  O307  1  0.922930  0.449150  0.796100  1.0  -0.5758
  O  O308  1  0.860260  0.409100  0.705800  1.0  -0.4631
  O  O309  1  0.903880  0.492990  0.453370  1.0  -0.5749
  O  O310  1  0.983810  0.569850  0.430210  1.0  -0.4413
  O  O311  1  0.106770  0.667100  0.646470  1.0  -0.5722
  O  O312  1  0.091820  0.623710  0.756700  1.0  -0.4549
  O  O313  1  0.805120  0.354550  0.859290  1.0  -0.5755
  O  O314  1  0.814330  0.436850  0.865700  1.0  -0.4342
  O  O315  1  0.589600  0.782480  0.129430  1.0  -0.5761
  O  O316  1  0.526930  0.742430  0.039130  1.0  -0.4631
  O  O317  1  0.570550  0.826320  0.786700  1.0  -0.5749
  O  O318  1  0.650480  0.903180  0.763540  1.0  -0.4413
  O  O319  1  0.773440  0.000430  0.979800  1.0  -0.5722
  O  O320  1  0.758490  0.957040  0.090030  1.0  -0.4549
  O  O321  1  0.471790  0.687880  0.192620  1.0  -0.5755
  O  O322  1  0.481000  0.770180  0.199030  1.0  -0.4342
  O  O323  1  0.256260  0.115820  0.462770  1.0  -0.5759
  O  O324  1  0.193590  0.075770  0.372470  1.0  -0.4631
  O  O325  1  0.237210  0.159660  0.120040  1.0  -0.5749
  O  O326  1  0.317140  0.236520  0.096880  1.0  -0.4413
  O  O327  1  0.440100  0.333770  0.313140  1.0  -0.5722
  O  O328  1  0.425150  0.290380  0.423370  1.0  -0.4548
  O  O329  1  0.138450  0.021220  0.525960  1.0  -0.5756
  O  O330  1  0.147660  0.103520  0.532370  1.0  -0.4342
  O  O331  1  0.550850  0.473780  0.796100  1.0  -0.5762
  O  O332  1  0.590900  0.451160  0.705800  1.0  -0.4644
  O  O333  1  0.507010  0.410890  0.453370  1.0  -0.5755
  O  O334  1  0.430150  0.413960  0.430210  1.0  -0.4443
  O  O335  1  0.332900  0.439670  0.646470  1.0  -0.5705
  O  O336  1  0.376290  0.468110  0.756700  1.0  -0.4569
  O  O337  1  0.645450  0.450570  0.859290  1.0  -0.5786
  O  O338  1  0.563150  0.377480  0.865700  1.0  -0.4362
  O  O339  1  0.217520  0.807110  0.129430  1.0  -0.5765
  O  O340  1  0.257570  0.784490  0.039130  1.0  -0.4644
  O  O341  1  0.173680  0.744220  0.786700  1.0  -0.5755
  O  O342  1  0.096820  0.747290  0.763540  1.0  -0.4443
  O  O343  1  0.999570  0.773000  0.979800  1.0  -0.5705
  O  O344  1  0.042960  0.801440  0.090030  1.0  -0.4569
  O  O345  1  0.312120  0.783900  0.192620  1.0  -0.5786
  O  O346  1  0.229820  0.710810  0.199030  1.0  -0.4362
  O  O347  1  0.884180  0.140450  0.462770  1.0  -0.5762
  O  O348  1  0.924230  0.117830  0.372470  1.0  -0.4643
  O  O349  1  0.840340  0.077560  0.120040  1.0  -0.5755
  O  O350  1  0.763480  0.080630  0.096880  1.0  -0.4443
  O  O351  1  0.666230  0.106340  0.313140  1.0  -0.5707
  O  O352  1  0.709620  0.134780  0.423370  1.0  -0.4567
  O  O353  1  0.978780  0.117240  0.525960  1.0  -0.5786
  O  O354  1  0.896480  0.044150  0.532370  1.0  -0.4362
  O  O355  1  0.526220  0.077070  0.796100  1.0  -0.5768
  O  O356  1  0.548840  0.139740  0.705800  1.0  -0.4594
  O  O357  1  0.589110  0.096120  0.453370  1.0  -0.5741
  O  O358  1  0.586040  0.016190  0.430210  1.0  -0.4395
  O  O359  1  0.560330  0.893230  0.646470  1.0  -0.5719
  O  O360  1  0.531890  0.908180  0.756700  1.0  -0.4563
  O  O361  1  0.549430  0.194880  0.859290  1.0  -0.5755
  O  O362  1  0.622520  0.185670  0.865700  1.0  -0.4345
  O  O363  1  0.192890  0.410400  0.129430  1.0  -0.5768
  O  O364  1  0.215510  0.473070  0.039130  1.0  -0.4594
  O  O365  1  0.255780  0.429450  0.786700  1.0  -0.5741
  O  O366  1  0.252710  0.349520  0.763540  1.0  -0.4395
  O  O367  1  0.227000  0.226560  0.979800  1.0  -0.5719
  O  O368  1  0.198560  0.241510  0.090030  1.0  -0.4561
  O  O369  1  0.216100  0.528210  0.192620  1.0  -0.5755
  O  O370  1  0.289190  0.519000  0.199030  1.0  -0.4345
  O  O371  1  0.859550  0.743740  0.462770  1.0  -0.5771
  O  O372  1  0.882170  0.806410  0.372470  1.0  -0.4592
  O  O373  1  0.922440  0.762790  0.120040  1.0  -0.5741
  O  O374  1  0.919370  0.682860  0.096880  1.0  -0.4395
  O  O375  1  0.893660  0.559900  0.313140  1.0  -0.5719
  O  O376  1  0.865220  0.574850  0.423370  1.0  -0.4563
  O  O377  1  0.882760  0.861550  0.525960  1.0  -0.5755
  O  O378  1  0.955850  0.852340  0.532370  1.0  -0.4345
  O  O379  1  0.550850  0.077070  0.296100  1.0  -0.5773
  O  O380  1  0.590900  0.139740  0.205800  1.0  -0.4577
  O  O381  1  0.507010  0.096120  0.953370  1.0  -0.5752
  O  O382  1  0.430150  0.016190  0.930210  1.0  -0.4406
  O  O383  1  0.332900  0.893230  0.146470  1.0  -0.5712
  O  O384  1  0.376290  0.908180  0.256700  1.0  -0.4553
  O  O385  1  0.645450  0.194880  0.359290  1.0  -0.5752
  O  O386  1  0.563150  0.185670  0.365700  1.0  -0.4355
  O  O387  1  0.217520  0.410400  0.629430  1.0  -0.5776
  O  O388  1  0.257570  0.473070  0.539130  1.0  -0.4577
  O  O389  1  0.173680  0.429450  0.286700  1.0  -0.5752
  O  O390  1  0.096820  0.349520  0.263540  1.0  -0.4405
  O  O391  1  0.999570  0.226560  0.479800  1.0  -0.5712
  O  O392  1  0.042960  0.241510  0.590030  1.0  -0.4553
  O  O393  1  0.312120  0.528210  0.692620  1.0  -0.5752
  O  O394  1  0.229820  0.519000  0.699030  1.0  -0.4355
  O  O395  1  0.884180  0.743740  0.962770  1.0  -0.5774
  O  O396  1  0.924230  0.806410  0.872470  1.0  -0.4577
  O  O397  1  0.840340  0.762790  0.620040  1.0  -0.5752
  O  O398  1  0.763480  0.682860  0.596880  1.0  -0.4406
  O  O399  1  0.666230  0.559900  0.813140  1.0  -0.5712
  O  O400  1  0.709620  0.574850  0.923370  1.0  -0.4551
  O  O401  1  0.978780  0.861550  0.025960  1.0  -0.5752
  O  O402  1  0.896480  0.852340  0.032370  1.0  -0.4355
  O  O403  1  0.526220  0.449150  0.296100  1.0  -0.5767
  O  O404  1  0.548840  0.409100  0.205800  1.0  -0.4614
  O  O405  1  0.589110  0.492990  0.953370  1.0  -0.5754
  O  O406  1  0.586040  0.569850  0.930210  1.0  -0.4432
  O  O407  1  0.560330  0.667100  0.146470  1.0  -0.5727
  O  O408  1  0.531890  0.623710  0.256700  1.0  -0.4551
  O  O409  1  0.549430  0.354550  0.359290  1.0  -0.5753
  O  O410  1  0.622520  0.436850  0.365700  1.0  -0.4338
  O  O411  1  0.192890  0.782480  0.629430  1.0  -0.577
  O  O412  1  0.215510  0.742430  0.539130  1.0  -0.4614
  O  O413  1  0.255780  0.826320  0.286700  1.0  -0.5754
  O  O414  1  0.252710  0.903180  0.263540  1.0  -0.4432
  O  O415  1  0.227000  0.000430  0.479800  1.0  -0.5728
  O  O416  1  0.198560  0.957040  0.590030  1.0  -0.4551
  O  O417  1  0.216100  0.687880  0.692620  1.0  -0.5753
  O  O418  1  0.289190  0.770180  0.699030  1.0  -0.4338
  O  O419  1  0.859550  0.115820  0.962770  1.0  -0.5767
  O  O420  1  0.882170  0.075770  0.872470  1.0  -0.4613
  O  O421  1  0.922440  0.159660  0.620040  1.0  -0.5754
  O  O422  1  0.919370  0.236520  0.596880  1.0  -0.4432
  O  O423  1  0.893660  0.333770  0.813140  1.0  -0.5729
  O  O424  1  0.865220  0.290380  0.923370  1.0  -0.455
  O  O425  1  0.882760  0.021220  0.025960  1.0  -0.5753
  O  O426  1  0.955850  0.103520  0.032370  1.0  -0.4338
  O  O427  1  0.922930  0.473780  0.296100  1.0  -0.5759
  O  O428  1  0.860260  0.451160  0.205800  1.0  -0.466
  O  O429  1  0.903880  0.410890  0.953370  1.0  -0.5738
  O  O430  1  0.983810  0.413960  0.930210  1.0  -0.443
  O  O431  1  0.106770  0.439670  0.146470  1.0  -0.5722
  O  O432  1  0.091820  0.468110  0.256700  1.0  -0.457
  O  O433  1  0.805120  0.450570  0.359290  1.0  -0.5788
  O  O434  1  0.814330  0.377480  0.365700  1.0  -0.4358
  O  O435  1  0.589600  0.807110  0.629430  1.0  -0.5759
  O  O436  1  0.526930  0.784490  0.539130  1.0  -0.466
  O  O437  1  0.570550  0.744220  0.286700  1.0  -0.5738
  O  O438  1  0.650480  0.747290  0.263540  1.0  -0.443
  O  O439  1  0.773440  0.773000  0.479800  1.0  -0.5722
  O  O440  1  0.758490  0.801440  0.590030  1.0  -0.4569
  O  O441  1  0.471790  0.783900  0.692620  1.0  -0.5788
  O  O442  1  0.481000  0.710810  0.699030  1.0  -0.4358
  O  O443  1  0.256260  0.140450  0.962770  1.0  -0.5762
  O  O444  1  0.193590  0.117830  0.872470  1.0  -0.4659
  O  O445  1  0.237210  0.077560  0.620040  1.0  -0.5738
  O  O446  1  0.317140  0.080630  0.596880  1.0  -0.443
  O  O447  1  0.440100  0.106340  0.813140  1.0  -0.5722
  O  O448  1  0.425150  0.134780  0.923370  1.0  -0.457
  O  O449  1  0.138450  0.117240  0.025960  1.0  -0.5788
  O  O450  1  0.147660  0.044150  0.032370  1.0  -0.4358
