# generated using pymatgen
data_CuH13C7N2ClO3
_symmetry_space_group_name_H-M   'P 1'
_cell_length_a   8.67770000
_cell_length_b   15.91500000
_cell_length_c   15.91500000
_cell_angle_alpha   120.00000000
_cell_angle_beta   90.00000000
_cell_angle_gamma   90.00000000
_symmetry_Int_Tables_number   1
_chemical_formula_structural   CuH13C7N2ClO3
_chemical_formula_sum   'Cu6 H78 C42 N12 Cl6 O18'
_cell_volume   1903.48101463
_cell_formula_units_Z   6
loop_
 _symmetry_equiv_pos_site_id
 _symmetry_equiv_pos_as_xyz
  1  'x, y, z'
loop_
 _atom_site_type_symbol
 _atom_site_label
 _atom_site_symmetry_multiplicity
 _atom_site_fract_x
 _atom_site_fract_y
 _atom_site_fract_z
 _atom_site_occupancy
 _atom_site_charge
  Cu  Cu1  1  0.890000  0.381410  0.590950  1.0  0.8203
  Cu  Cu2  1  0.223330  0.209540  0.618590  1.0  0.8208
  Cu  Cu3  1  0.556670  0.409050  0.790460  1.0  0.8186
  Cu  Cu4  1  0.890000  0.618590  0.409050  1.0  0.82
  Cu  Cu5  1  0.223330  0.790460  0.381410  1.0  0.8209
  Cu  Cu6  1  0.556670  0.590950  0.209540  1.0  0.8193
  H  H7  1  0.588400  0.874200  0.095500  1.0  0.1009
  H  H8  1  0.580300  0.852800  0.181500  1.0  0.1314
  H  H9  1  0.430300  0.848000  0.124300  1.0  0.112
  H  H10  1  0.165300  0.518600  0.769000  1.0  0.1326
  H  H11  1  0.183300  0.605200  0.875400  1.0  0.116
  H  H12  1  0.242100  0.501600  0.848400  1.0  0.1279
  H  H13  1  0.314800  0.615000  0.704800  1.0  0.138
  H  H14  1  0.482400  0.650400  0.742700  1.0  0.1252
  H  H15  1  0.340600  0.702200  0.810000  1.0  0.097
  H  H16  1  0.418000  0.733000  0.931000  1.0  0.2781
  H  H17  1  0.670000  0.719000  0.040000  1.0  0.0832
  H  H18  1  0.401400  0.443300  0.678100  1.0  0.3601
  H  H19  1  0.559000  0.506900  0.730600  1.0  0.3033
  H  H20  1  0.921730  0.221300  0.125800  1.0  0.0968
  H  H21  1  0.913630  0.328700  0.147200  1.0  0.1283
  H  H22  1  0.763630  0.276300  0.152000  1.0  0.1128
  H  H23  1  0.498630  0.250400  0.481400  1.0  0.1332
  H  H24  1  0.516630  0.270200  0.394800  1.0  0.1161
  H  H25  1  0.575430  0.346800  0.498400  1.0  0.1346
  H  H26  1  0.648130  0.089800  0.385000  1.0  0.128
  H  H27  1  0.815730  0.092300  0.349600  1.0  0.1235
  H  H28  1  0.673930  0.107800  0.297800  1.0  0.0944
  H  H29  1  0.751330  0.198000  0.267000  1.0  0.2798
  H  H30  1  0.003330  0.321000  0.281000  1.0  0.0832
  H  H31  1  0.734730  0.234800  0.556700  1.0  0.3579
  H  H32  1  0.892330  0.223700  0.493100  1.0  0.3028
  H  H33  1  0.255070  0.904500  0.778700  1.0  0.101
  H  H34  1  0.246970  0.818500  0.671300  1.0  0.1317
  H  H35  1  0.096970  0.875700  0.723700  1.0  0.1114
  H  H36  1  0.831970  0.231000  0.749600  1.0  0.134
  H  H37  1  0.849970  0.124600  0.729800  1.0  0.1163
  H  H38  1  0.908770  0.151600  0.653200  1.0  0.1294
  H  H39  1  0.981470  0.295200  0.910200  1.0  0.138
  H  H40  1  0.149070  0.257300  0.907700  1.0  0.1244
  H  H41  1  0.007270  0.190000  0.892200  1.0  0.0951
  H  H42  1  0.084670  0.069000  0.802000  1.0  0.2797
  H  H43  1  0.336670  0.960000  0.679000  1.0  0.0828
  H  H44  1  0.068070  0.321900  0.765200  1.0  0.3584
  H  H45  1  0.225670  0.269400  0.776300  1.0  0.303
  H  H46  1  0.588400  0.125800  0.904500  1.0  0.1006
  H  H47  1  0.580300  0.147200  0.818500  1.0  0.1315
  H  H48  1  0.430300  0.152000  0.875700  1.0  0.1135
  H  H49  1  0.165300  0.481400  0.231000  1.0  0.1311
  H  H50  1  0.183300  0.394800  0.124600  1.0  0.115
  H  H51  1  0.242100  0.498400  0.151600  1.0  0.1282
  H  H52  1  0.314800  0.385000  0.295200  1.0  0.1271
  H  H53  1  0.482400  0.349600  0.257300  1.0  0.1254
  H  H54  1  0.340600  0.297800  0.190000  1.0  0.0956
  H  H55  1  0.418000  0.267000  0.069000  1.0  0.2796
  H  H56  1  0.670000  0.281000  0.960000  1.0  0.0836
  H  H57  1  0.401400  0.556700  0.321900  1.0  0.3568
  H  H58  1  0.559000  0.493100  0.269400  1.0  0.3032
  H  H59  1  0.921730  0.778700  0.874200  1.0  0.0996
  H  H60  1  0.913630  0.671300  0.852800  1.0  0.1278
  H  H61  1  0.763630  0.723700  0.848000  1.0  0.1117
  H  H62  1  0.498630  0.749600  0.518600  1.0  0.1324
  H  H63  1  0.516630  0.729800  0.605200  1.0  0.1159
  H  H64  1  0.575430  0.653200  0.501600  1.0  0.1324
  H  H65  1  0.648130  0.910200  0.615000  1.0  0.132
  H  H66  1  0.815730  0.907700  0.650400  1.0  0.1242
  H  H67  1  0.673930  0.892200  0.702200  1.0  0.0966
  H  H68  1  0.751330  0.802000  0.733000  1.0  0.2805
  H  H69  1  0.003330  0.679000  0.719000  1.0  0.0838
  H  H70  1  0.734730  0.765200  0.443300  1.0  0.3596
  H  H71  1  0.892330  0.776300  0.506900  1.0  0.3029
  H  H72  1  0.255070  0.095500  0.221300  1.0  0.1006
  H  H73  1  0.246970  0.181500  0.328700  1.0  0.1316
  H  H74  1  0.096970  0.124300  0.276300  1.0  0.1103
  H  H75  1  0.831970  0.769000  0.250400  1.0  0.1337
  H  H76  1  0.849970  0.875400  0.270200  1.0  0.1162
  H  H77  1  0.908770  0.848400  0.346800  1.0  0.1289
  H  H78  1  0.981470  0.704800  0.089800  1.0  0.1279
  H  H79  1  0.149070  0.742700  0.092300  1.0  0.1246
  H  H80  1  0.007270  0.810000  0.107800  1.0  0.0949
  H  H81  1  0.084670  0.931000  0.198000  1.0  0.2805
  H  H82  1  0.336670  0.040000  0.321000  1.0  0.0831
  H  H83  1  0.068070  0.678100  0.234800  1.0  0.3597
  H  H84  1  0.225670  0.730600  0.223700  1.0  0.3035
  C  C85  1  0.517700  0.331300  0.906600  1.0  0.5977
  C  C86  1  0.569000  0.271700  0.951900  1.0  0.1219
  C  C87  1  0.539200  0.835800  0.118900  1.0  -0.345
  C  C88  1  0.488600  0.394500  0.111400  1.0  0.4512
  C  C89  1  0.388600  0.570400  0.799600  1.0  0.2274
  C  C90  1  0.229900  0.546700  0.825500  1.0  -0.3835
  C  C91  1  0.380900  0.641100  0.760600  1.0  -0.3818
  C  C92  1  0.851030  0.575300  0.668700  1.0  0.5963
  C  C93  1  0.902330  0.680200  0.728300  1.0  0.1213
  C  C94  1  0.872530  0.283100  0.164200  1.0  -0.3468
  C  C95  1  0.821930  0.716900  0.605500  1.0  0.4484
  C  C96  1  0.721930  0.229200  0.429600  1.0  0.2269
  C  C97  1  0.563230  0.278800  0.453300  1.0  -0.3822
  C  C98  1  0.714230  0.119500  0.358900  1.0  -0.3811
  C  C99  1  0.184370  0.093400  0.424700  1.0  0.5971
  C  C100  1  0.235670  0.048100  0.319800  1.0  0.1206
  C  C101  1  0.205870  0.881100  0.716900  1.0  -0.3462
  C  C102  1  0.155270  0.888600  0.283100  1.0  0.4457
  C  C103  1  0.055270  0.200400  0.770800  1.0  0.2274
  C  C104  1  0.896570  0.174500  0.721200  1.0  -0.3832
  C  C105  1  0.047570  0.239400  0.880500  1.0  -0.3829
  C  C106  1  0.517700  0.668700  0.093400  1.0  0.597
  C  C107  1  0.569000  0.728300  0.048100  1.0  0.1227
  C  C108  1  0.539200  0.164200  0.881100  1.0  -0.3461
  C  C109  1  0.488600  0.605500  0.888600  1.0  0.4471
  C  C110  1  0.388600  0.429600  0.200400  1.0  0.227
  C  C111  1  0.229900  0.453300  0.174500  1.0  -0.3831
  C  C112  1  0.380900  0.358900  0.239400  1.0  -0.3824
  C  C113  1  0.851030  0.424700  0.331300  1.0  0.5967
  C  C114  1  0.902330  0.319800  0.271700  1.0  0.1204
  C  C115  1  0.872530  0.716900  0.835800  1.0  -0.3459
  C  C116  1  0.821930  0.283100  0.394500  1.0  0.449
  C  C117  1  0.721930  0.770800  0.570400  1.0  0.227
  C  C118  1  0.563230  0.721200  0.546700  1.0  -0.3828
  C  C119  1  0.714230  0.880500  0.641100  1.0  -0.3828
  C  C120  1  0.184370  0.906600  0.575300  1.0  0.5984
  C  C121  1  0.235670  0.951900  0.680200  1.0  0.1221
  C  C122  1  0.205870  0.118900  0.283100  1.0  -0.3474
  C  C123  1  0.155270  0.111400  0.716900  1.0  0.4522
  C  C124  1  0.055270  0.799600  0.229200  1.0  0.2273
  C  C125  1  0.896570  0.825500  0.278800  1.0  -0.384
  C  C126  1  0.047570  0.760600  0.119500  1.0  -0.3848
  N  N127  1  0.462100  0.476300  0.726900  1.0  -0.6934
  N  N128  1  0.484300  0.302600  0.043200  1.0  -0.4216
  N  N129  1  0.795430  0.250600  0.523700  1.0  -0.6918
  N  N130  1  0.817630  0.740600  0.697400  1.0  -0.4238
  N  N131  1  0.128770  0.273100  0.749400  1.0  -0.694
  N  N132  1  0.150970  0.956800  0.259400  1.0  -0.4237
  N  N133  1  0.462100  0.523700  0.273100  1.0  -0.6956
  N  N134  1  0.484300  0.697400  0.956800  1.0  -0.4206
  N  N135  1  0.795430  0.749400  0.476300  1.0  -0.6907
  N  N136  1  0.817630  0.259400  0.302600  1.0  -0.4256
  N  N137  1  0.128770  0.726900  0.250600  1.0  -0.6944
  N  N138  1  0.150970  0.043200  0.740600  1.0  -0.4243
  Cl  Cl139  1  0.844600  0.415070  0.746630  1.0  -0.5118
  Cl  Cl140  1  0.177930  0.331560  0.584930  1.0  -0.5106
  Cl  Cl141  1  0.511270  0.253370  0.668440  1.0  -0.5126
  Cl  Cl142  1  0.844600  0.584930  0.253370  1.0  -0.5117
  Cl  Cl143  1  0.177930  0.668440  0.415070  1.0  -0.5119
  Cl  Cl144  1  0.511270  0.746630  0.331560  1.0  -0.513
  O  O145  1  0.629000  0.358900  0.872200  1.0  -0.553
  O  O146  1  0.566600  0.453600  0.099900  1.0  -0.4404
  O  O147  1  0.379800  0.345900  0.900400  1.0  -0.5814
  O  O148  1  0.962330  0.513300  0.641100  1.0  -0.5512
  O  O149  1  0.899930  0.646300  0.546400  1.0  -0.4364
  O  O150  1  0.713130  0.554500  0.654100  1.0  -0.582
  O  O151  1  0.295670  0.127800  0.486700  1.0  -0.5521
  O  O152  1  0.233270  0.900100  0.353700  1.0  -0.4388
  O  O153  1  0.046470  0.099600  0.445500  1.0  -0.5821
  O  O154  1  0.629000  0.641100  0.127800  1.0  -0.5525
  O  O155  1  0.566600  0.546400  0.900100  1.0  -0.4406
  O  O156  1  0.379800  0.654100  0.099600  1.0  -0.5815
  O  O157  1  0.962330  0.486700  0.358900  1.0  -0.5517
  O  O158  1  0.899930  0.353700  0.453600  1.0  -0.4354
  O  O159  1  0.713130  0.445500  0.345900  1.0  -0.5815
  O  O160  1  0.295670  0.872200  0.513300  1.0  -0.5523
  O  O161  1  0.233270  0.099900  0.646300  1.0  -0.4408
  O  O162  1  0.046470  0.900400  0.554500  1.0  -0.5809
