# generated using pymatgen
data_PrH6(C4O3)3
_symmetry_space_group_name_H-M   'P 1'
_cell_length_a   6.79510000
_cell_length_b   13.11300000
_cell_length_c   16.29890000
_cell_angle_alpha   113.72000000
_cell_angle_beta   100.58400000
_cell_angle_gamma   90.00000000
_symmetry_Int_Tables_number   1
_chemical_formula_structural   PrH6(C4O3)3
_chemical_formula_sum   'Pr4 H24 C48 O36'
_cell_volume   1302.57894748
_cell_formula_units_Z   4
loop_
 _symmetry_equiv_pos_site_id
 _symmetry_equiv_pos_as_xyz
  1  'x, y, z'
loop_
 _atom_site_type_symbol
 _atom_site_label
 _atom_site_symmetry_multiplicity
 _atom_site_fract_x
 _atom_site_fract_y
 _atom_site_fract_z
 _atom_site_occupancy
 _atom_site_charge
  Pr  Pr1  1  0.272050  0.300960  0.196540  1.0  2.2563
  Pr  Pr2  1  0.227950  0.104420  0.803460  1.0  2.2541
  Pr  Pr3  1  0.727950  0.699040  0.803460  1.0  2.2575
  Pr  Pr4  1  0.772050  0.895580  0.196540  1.0  2.2533
  H  H5  1  0.190800  0.434300  0.388400  1.0  0.3992
  H  H6  1  0.504500  0.220700  0.654200  1.0  0.3763
  H  H7  1  0.249800  0.518900  0.187600  1.0  0.3624
  H  H8  1  0.362300  0.465700  0.531800  1.0  0.1074
  H  H9  1  0.279900  0.081500  0.438400  1.0  0.1133
  H  H10  1  0.858200  0.354200  0.863400  1.0  0.1174
  H  H11  1  0.309200  0.045900  0.611600  1.0  0.3972
  H  H12  1  0.995500  0.566500  0.345800  1.0  0.3743
  H  H13  1  0.250200  0.331300  0.812400  1.0  0.3606
  H  H14  1  0.137700  0.933900  0.468200  1.0  0.1061
  H  H15  1  0.220100  0.643100  0.561600  1.0  0.1132
  H  H16  1  0.641800  0.490800  0.136600  1.0  0.1195
  H  H17  1  0.809200  0.565700  0.611600  1.0  0.3978
  H  H18  1  0.495500  0.779300  0.345800  1.0  0.377
  H  H19  1  0.750200  0.481100  0.812400  1.0  0.3617
  H  H20  1  0.637700  0.534300  0.468200  1.0  0.1073
  H  H21  1  0.720100  0.918500  0.561600  1.0  0.1134
  H  H22  1  0.141800  0.645800  0.136600  1.0  0.1173
  H  H23  1  0.690800  0.954100  0.388400  1.0  0.398
  H  H24  1  0.004500  0.433500  0.654200  1.0  0.3721
  H  H25  1  0.749800  0.668700  0.187600  1.0  0.3634
  H  H26  1  0.862300  0.066100  0.531800  1.0  0.106
  H  H27  1  0.779900  0.356900  0.438400  1.0  0.1113
  H  H28  1  0.358200  0.509200  0.863400  1.0  0.119
  C  C29  1  0.232800  0.203900  0.393800  1.0  -0.1988
  C  C30  1  0.259200  0.321600  0.423800  1.0  0.2766
  C  C31  1  0.348000  0.388600  0.512800  1.0  -0.1626
  C  C32  1  0.417400  0.341300  0.575600  1.0  -0.2456
  C  C33  1  0.389000  0.225300  0.546800  1.0  0.3234
  C  C34  1  0.297800  0.158400  0.456800  1.0  -0.1205
  C  C35  1  0.132800  0.126500  0.298000  1.0  0.7454
  C  C36  1  0.522800  0.415900  0.669800  1.0  0.6761
  C  C37  1  0.002400  0.389100  0.992600  1.0  -0.196
  C  C38  1  0.091100  0.478500  0.075800  1.0  0.3132
  C  C39  1  0.914700  0.413100  0.918600  1.0  -0.141
  C  C40  1  0.012900  0.269900  0.978400  1.0  0.7249
  C  C41  1  0.267200  0.810100  0.606200  1.0  -0.197
  C  C42  1  0.240800  0.897800  0.576200  1.0  0.2776
  C  C43  1  0.152000  0.875800  0.487200  1.0  -0.1626
  C  C44  1  0.082600  0.765700  0.424400  1.0  -0.2457
  C  C45  1  0.111000  0.678500  0.453200  1.0  0.3236
  C  C46  1  0.202200  0.701600  0.543200  1.0  -0.1171
  C  C47  1  0.367200  0.828500  0.702000  1.0  0.7476
  C  C48  1  0.977200  0.746100  0.330200  1.0  0.6764
  C  C49  1  0.497600  0.396500  0.007400  1.0  -0.2029
  C  C50  1  0.408900  0.402700  0.924200  1.0  0.3128
  C  C51  1  0.585300  0.494500  0.081400  1.0  -0.1394
  C  C52  1  0.487100  0.291500  0.021600  1.0  0.7227
  C  C53  1  0.767200  0.796100  0.606200  1.0  -0.2006
  C  C54  1  0.740800  0.678400  0.576200  1.0  0.2765
  C  C55  1  0.652000  0.611400  0.487200  1.0  -0.1634
  C  C56  1  0.582600  0.658700  0.424400  1.0  -0.2459
  C  C57  1  0.611000  0.774700  0.453200  1.0  0.3225
  C  C58  1  0.702200  0.841600  0.543200  1.0  -0.1201
  C  C59  1  0.867200  0.873500  0.702000  1.0  0.744
  C  C60  1  0.477200  0.584100  0.330200  1.0  0.6752
  C  C61  1  0.997600  0.610900  0.007400  1.0  -0.1991
  C  C62  1  0.908900  0.521500  0.924200  1.0  0.3117
  C  C63  1  0.085300  0.586900  0.081400  1.0  -0.1385
  C  C64  1  0.987100  0.730100  0.021600  1.0  0.7285
  C  C65  1  0.732800  0.189900  0.393800  1.0  -0.2003
  C  C66  1  0.759200  0.102200  0.423800  1.0  0.2773
  C  C67  1  0.848000  0.124200  0.512800  1.0  -0.1626
  C  C68  1  0.917400  0.234300  0.575600  1.0  -0.2449
  C  C69  1  0.889000  0.321500  0.546800  1.0  0.3232
  C  C70  1  0.797800  0.298400  0.456800  1.0  -0.1209
  C  C71  1  0.632800  0.171500  0.298000  1.0  0.7462
  C  C72  1  0.022800  0.253900  0.669800  1.0  0.677
  C  C73  1  0.502400  0.603500  0.992600  1.0  -0.204
  C  C74  1  0.591100  0.597300  0.075800  1.0  0.3125
  C  C75  1  0.414700  0.505500  0.918600  1.0  -0.1407
  C  C76  1  0.512900  0.708500  0.978400  1.0  0.73
  O  O77  1  0.117700  0.159500  0.234600  1.0  -0.7401
  O  O78  1  0.067300  0.030060  0.285720  1.0  -0.7044
  O  O79  1  0.598000  0.369770  0.722540  1.0  -0.5816
  O  O80  1  0.536900  0.520060  0.693520  1.0  -0.6012
  O  O81  1  0.190300  0.366260  0.361520  1.0  -0.5868
  O  O82  1  0.446600  0.174270  0.604340  1.0  -0.5096
  O  O83  1  0.061300  0.243330  0.044860  1.0  -0.7333
  O  O84  1  0.973200  0.196590  0.895580  1.0  -0.6751
  O  O85  1  0.186900  0.460780  0.149160  1.0  -0.5855
  O  O86  1  0.382300  0.924900  0.765400  1.0  -0.7412
  O  O87  1  0.432700  0.744340  0.714280  1.0  -0.7093
  O  O88  1  0.902000  0.647230  0.277460  1.0  -0.5832
  O  O89  1  0.963100  0.826540  0.306480  1.0  -0.602
  O  O90  1  0.309700  0.004740  0.638480  1.0  -0.5844
  O  O91  1  0.053400  0.569930  0.395660  1.0  -0.5091
  O  O92  1  0.438700  0.198470  0.955140  1.0  -0.7274
  O  O93  1  0.526800  0.301010  0.104420  1.0  -0.6815
  O  O94  1  0.313100  0.311620  0.850840  1.0  -0.5833
  O  O95  1  0.882300  0.840500  0.765400  1.0  -0.743
  O  O96  1  0.932700  0.969940  0.714280  1.0  -0.7036
  O  O97  1  0.402000  0.630230  0.277460  1.0  -0.5815
  O  O98  1  0.463100  0.479940  0.306480  1.0  -0.602
  O  O99  1  0.809700  0.633740  0.638480  1.0  -0.5868
  O  O100  1  0.553400  0.825730  0.395660  1.0  -0.5065
  O  O101  1  0.938700  0.756670  0.955140  1.0  -0.7334
  O  O102  1  0.026800  0.803410  0.104420  1.0  -0.6776
  O  O103  1  0.813100  0.539220  0.850840  1.0  -0.5799
  O  O104  1  0.617700  0.075100  0.234600  1.0  -0.7436
  O  O105  1  0.567300  0.255660  0.285720  1.0  -0.7089
  O  O106  1  0.098000  0.352770  0.722540  1.0  -0.5815
  O  O107  1  0.036900  0.173460  0.693520  1.0  -0.6035
  O  O108  1  0.690300  0.995260  0.361520  1.0  -0.5852
  O  O109  1  0.946600  0.430070  0.604340  1.0  -0.5094
  O  O110  1  0.561300  0.801530  0.044860  1.0  -0.7308
  O  O111  1  0.473200  0.698990  0.895580  1.0  -0.6829
  O  O112  1  0.686900  0.688380  0.149160  1.0  -0.5875
