# generated using pymatgen
data_LaH6(C4O3)3
_symmetry_space_group_name_H-M   'P 1'
_cell_length_a   6.81050000
_cell_length_b   13.19000000
_cell_length_c   16.38080000
_cell_angle_alpha   113.74100000
_cell_angle_beta   100.53200000
_cell_angle_gamma   90.00000000
_symmetry_Int_Tables_number   1
_chemical_formula_structural   LaH6(C4O3)3
_chemical_formula_sum   'La4 H24 C48 O36'
_cell_volume   1319.84249050
_cell_formula_units_Z   4
loop_
 _symmetry_equiv_pos_site_id
 _symmetry_equiv_pos_as_xyz
  1  'x, y, z'
loop_
 _atom_site_type_symbol
 _atom_site_label
 _atom_site_symmetry_multiplicity
 _atom_site_fract_x
 _atom_site_fract_y
 _atom_site_fract_z
 _atom_site_occupancy
 _atom_site_charge
  La  La1  1  0.272090  0.302030  0.197600  1.0  2.2104
  La  La2  1  0.227910  0.104430  0.802400  1.0  2.208
  La  La3  1  0.727910  0.697970  0.802400  1.0  2.2104
  La  La4  1  0.772090  0.895570  0.197600  1.0  2.2094
  H  H5  1  0.190700  0.433700  0.391400  1.0  0.4046
  H  H6  1  0.505300  0.219400  0.654400  1.0  0.3906
  H  H7  1  0.246700  0.519700  0.186800  1.0  0.3882
  H  H8  1  0.363900  0.462900  0.532200  1.0  0.1188
  H  H9  1  0.282900  0.082500  0.439600  1.0  0.1221
  H  H10  1  0.857900  0.354500  0.865000  1.0  0.1286
  H  H11  1  0.309300  0.042300  0.608600  1.0  0.4031
  H  H12  1  0.994700  0.565000  0.345600  1.0  0.3886
  H  H13  1  0.253300  0.332900  0.813200  1.0  0.3872
  H  H14  1  0.136100  0.930700  0.467800  1.0  0.1177
  H  H15  1  0.217100  0.642900  0.560400  1.0  0.1207
  H  H16  1  0.642100  0.489500  0.135000  1.0  0.131
  H  H17  1  0.809300  0.566300  0.608600  1.0  0.4033
  H  H18  1  0.494700  0.780600  0.345600  1.0  0.3908
  H  H19  1  0.753300  0.480300  0.813200  1.0  0.3868
  H  H20  1  0.636100  0.537100  0.467800  1.0  0.1189
  H  H21  1  0.717100  0.917500  0.560400  1.0  0.1218
  H  H22  1  0.142100  0.645500  0.135000  1.0  0.1294
  H  H23  1  0.690700  0.957700  0.391400  1.0  0.4035
  H  H24  1  0.005300  0.435000  0.654400  1.0  0.3886
  H  H25  1  0.746700  0.667100  0.186800  1.0  0.3887
  H  H26  1  0.863900  0.069300  0.532200  1.0  0.1171
  H  H27  1  0.782900  0.357100  0.439600  1.0  0.1194
  H  H28  1  0.357900  0.510500  0.865000  1.0  0.1302
  C  C29  1  0.233300  0.204180  0.395360  1.0  -0.2364
  C  C30  1  0.259000  0.320350  0.424900  1.0  0.3221
  C  C31  1  0.348800  0.386240  0.513480  1.0  -0.166
  C  C32  1  0.417900  0.340440  0.576080  1.0  -0.2335
  C  C33  1  0.389900  0.225610  0.547420  1.0  0.2971
  C  C34  1  0.299500  0.158970  0.457940  1.0  -0.1297
  C  C35  1  0.135900  0.126720  0.300040  1.0  0.7828
  C  C36  1  0.525000  0.414620  0.670240  1.0  0.7046
  C  C37  1  0.003200  0.389600  0.992600  1.0  -0.229
  C  C38  1  0.089800  0.479220  0.075240  1.0  0.344
  C  C39  1  0.915400  0.412930  0.919460  1.0  -0.1439
  C  C40  1  0.012100  0.271080  0.978160  1.0  0.7717
  C  C41  1  0.266700  0.808820  0.604640  1.0  -0.2345
  C  C42  1  0.241000  0.895450  0.575100  1.0  0.3225
  C  C43  1  0.151200  0.872760  0.486520  1.0  -0.1663
  C  C44  1  0.082100  0.764360  0.423920  1.0  -0.2338
  C  C45  1  0.110100  0.678190  0.452580  1.0  0.2967
  C  C46  1  0.200500  0.701030  0.542060  1.0  -0.1266
  C  C47  1  0.364100  0.826680  0.699960  1.0  0.783
  C  C48  1  0.975000  0.744380  0.329760  1.0  0.7045
  C  C49  1  0.496800  0.397000  0.007400  1.0  -0.2351
  C  C50  1  0.410200  0.403980  0.924760  1.0  0.3454
  C  C51  1  0.584600  0.493470  0.080540  1.0  -0.1431
  C  C52  1  0.487900  0.292920  0.021840  1.0  0.769
  C  C53  1  0.766700  0.795820  0.604640  1.0  -0.2361
  C  C54  1  0.741000  0.679650  0.575100  1.0  0.3228
  C  C55  1  0.651200  0.613760  0.486520  1.0  -0.1668
  C  C56  1  0.582100  0.659560  0.423920  1.0  -0.2341
  C  C57  1  0.610100  0.774390  0.452580  1.0  0.297
  C  C58  1  0.700500  0.841030  0.542060  1.0  -0.1303
  C  C59  1  0.864100  0.873280  0.699960  1.0  0.7816
  C  C60  1  0.475000  0.585380  0.329760  1.0  0.7032
  C  C61  1  0.996800  0.610400  0.007400  1.0  -0.2342
  C  C62  1  0.910200  0.520780  0.924760  1.0  0.3433
  C  C63  1  0.084600  0.587070  0.080540  1.0  -0.1428
  C  C64  1  0.987900  0.728920  0.021840  1.0  0.7776
  C  C65  1  0.733300  0.191180  0.395360  1.0  -0.2378
  C  C66  1  0.759000  0.104550  0.424900  1.0  0.3231
  C  C67  1  0.848800  0.127240  0.513480  1.0  -0.1663
  C  C68  1  0.917900  0.235640  0.576080  1.0  -0.2332
  C  C69  1  0.889900  0.321810  0.547420  1.0  0.2975
  C  C70  1  0.799500  0.298970  0.457940  1.0  -0.1296
  C  C71  1  0.635900  0.173320  0.300040  1.0  0.7842
  C  C72  1  0.025000  0.255620  0.670240  1.0  0.705
  C  C73  1  0.503200  0.603000  0.992600  1.0  -0.2371
  C  C74  1  0.589800  0.596020  0.075240  1.0  0.3426
  C  C75  1  0.415400  0.506530  0.919460  1.0  -0.1463
  C  C76  1  0.512100  0.707080  0.978160  1.0  0.7782
  O  O77  1  0.120100  0.159890  0.237100  1.0  -0.7449
  O  O78  1  0.073300  0.030550  0.287400  1.0  -0.6924
  O  O79  1  0.599900  0.368360  0.722120  1.0  -0.588
  O  O80  1  0.538300  0.517590  0.692760  1.0  -0.6974
  O  O81  1  0.189500  0.366080  0.364020  1.0  -0.5912
  O  O82  1  0.447500  0.173540  0.604500  1.0  -0.5052
  O  O83  1  0.059300  0.244990  0.044880  1.0  -0.7331
  O  O84  1  0.972100  0.198660  0.896260  1.0  -0.6869
  O  O85  1  0.184200  0.461900  0.148760  1.0  -0.6011
  O  O86  1  0.379900  0.922790  0.762900  1.0  -0.7427
  O  O87  1  0.426700  0.743150  0.712600  1.0  -0.6964
  O  O88  1  0.900100  0.646240  0.277880  1.0  -0.589
  O  O89  1  0.961700  0.824830  0.307240  1.0  -0.699
  O  O90  1  0.310500  0.002060  0.635980  1.0  -0.5876
  O  O91  1  0.052500  0.569040  0.395500  1.0  -0.5056
  O  O92  1  0.440700  0.200110  0.955120  1.0  -0.727
  O  O93  1  0.527900  0.302400  0.103740  1.0  -0.6961
  O  O94  1  0.315800  0.313140  0.851240  1.0  -0.5931
  O  O95  1  0.879900  0.840110  0.762900  1.0  -0.745
  O  O96  1  0.926700  0.969450  0.712600  1.0  -0.6916
  O  O97  1  0.400100  0.631640  0.277880  1.0  -0.5884
  O  O98  1  0.461700  0.482410  0.307240  1.0  -0.698
  O  O99  1  0.810500  0.633920  0.635980  1.0  -0.5906
  O  O100  1  0.552500  0.826460  0.395500  1.0  -0.5037
  O  O101  1  0.940700  0.755010  0.955120  1.0  -0.7332
  O  O102  1  0.027900  0.801340  0.103740  1.0  -0.6948
  O  O103  1  0.815800  0.538100  0.851240  1.0  -0.5904
  O  O104  1  0.620100  0.077210  0.237100  1.0  -0.746
  O  O105  1  0.573300  0.256850  0.287400  1.0  -0.6968
  O  O106  1  0.099900  0.353760  0.722120  1.0  -0.5882
  O  O107  1  0.038300  0.175170  0.692760  1.0  -0.6989
  O  O108  1  0.689500  0.997940  0.364020  1.0  -0.5892
  O  O109  1  0.947500  0.430960  0.604500  1.0  -0.5059
  O  O110  1  0.559300  0.799890  0.044880  1.0  -0.7284
  O  O111  1  0.472100  0.697600  0.896260  1.0  -0.698
  O  O112  1  0.684200  0.686860  0.148760  1.0  -0.6011
