# generated using pymatgen
data_Dy2H9(C4O3)5
_symmetry_space_group_name_H-M   'P 1'
_cell_length_a   7.34940000
_cell_length_b   11.47500000
_cell_length_c   16.18520000
_cell_angle_alpha   78.79900000
_cell_angle_beta   82.48300000
_cell_angle_gamma   79.95500000
_symmetry_Int_Tables_number   1
_chemical_formula_structural   Dy2H9(C4O3)5
_chemical_formula_sum   'Dy4 H18 C40 O30'
_cell_volume   1311.78686588
_cell_formula_units_Z   2
loop_
 _symmetry_equiv_pos_site_id
 _symmetry_equiv_pos_as_xyz
  1  'x, y, z'
loop_
 _atom_site_type_symbol
 _atom_site_label
 _atom_site_symmetry_multiplicity
 _atom_site_fract_x
 _atom_site_fract_y
 _atom_site_fract_z
 _atom_site_occupancy
 _atom_site_charge
  Dy  Dy1  1  0.058460  0.934020  0.226370  1.0  2.2453
  Dy  Dy2  1  0.555710  0.735450  0.236030  1.0  2.339
  Dy  Dy3  1  0.941540  0.065980  0.773630  1.0  2.2379
  Dy  Dy4  1  0.444290  0.264560  0.763970  1.0  2.3395
  H  H5  1  0.005300  0.792900  0.033000  1.0  0.3988
  H  H6  1  0.429000  0.269400  0.020100  1.0  0.3968
  H  H7  1  0.153700  0.744400  0.440600  1.0  0.4
  H  H8  1  0.151200  0.123400  0.403200  1.0  0.4137
  H  H9  1  0.125400  0.614700  0.893200  1.0  0.1307
  H  H10  1  0.349800  0.458800  0.153300  1.0  0.1312
  H  H11  1  0.781300  0.494600  0.410700  1.0  0.1169
  H  H12  1  0.614900  0.820700  0.453000  1.0  0.1143
  H  H13  1  0.797300  0.045900  0.970300  1.0  0.1021
  H  H14  1  0.994700  0.207100  0.967000  1.0  0.399
  H  H15  1  0.571000  0.730600  0.979900  1.0  0.3971
  H  H16  1  0.846300  0.255600  0.559400  1.0  0.3997
  H  H17  1  0.848800  0.876600  0.596800  1.0  0.413
  H  H18  1  0.874600  0.385300  0.106800  1.0  0.13
  H  H19  1  0.650200  0.541200  0.846700  1.0  0.1308
  H  H20  1  0.218700  0.505400  0.589300  1.0  0.1175
  H  H21  1  0.385100  0.179300  0.547000  1.0  0.1148
  H  H22  1  0.202700  0.954100  0.029700  1.0  0.1011
  C  C23  1  0.206000  0.607400  0.087300  1.0  -0.2609
  C  C24  1  0.129700  0.651100  0.010000  1.0  0.305
  C  C25  1  0.165300  0.582600  0.946300  1.0  -0.1341
  C  C26  1  0.260400  0.466200  0.961700  1.0  -0.2307
  C  C27  1  0.323100  0.418500  0.040500  1.0  0.3023
  C  C28  1  0.301100  0.489400  0.101900  1.0  -0.1361
  C  C29  1  0.192100  0.685800  0.152000  1.0  0.7574
  C  C30  1  0.298600  0.395200  0.892100  1.0  0.6903
  C  C31  1  0.098700  0.595900  0.485800  1.0  0.3106
  C  C32  1  0.967100  0.593800  0.431000  1.0  -0.2638
  C  C33  1  0.869400  0.497000  0.446400  1.0  -0.1196
  C  C34  1  0.928500  0.691600  0.357000  1.0  0.8028
  C  C35  1  0.350200  0.075900  0.464000  1.0  0.3146
  C  C36  1  0.568500  0.892700  0.472000  1.0  -0.1238
  C  C37  1  0.417900  0.968100  0.436100  1.0  -0.2668
  C  C38  1  0.337400  0.930600  0.366300  1.0  0.7875
  C  C39  1  0.676900  0.027900  0.981600  1.0  -0.1417
  C  C40  1  0.432900  0.952800  0.085400  1.0  0.3727
  C  C41  1  0.613200  0.982900  0.064700  1.0  -0.1952
  C  C42  1  0.747900  0.965100  0.128500  1.0  0.7587
  C  C43  1  0.794000  0.392600  0.912700  1.0  -0.26
  C  C44  1  0.870300  0.348900  0.990000  1.0  0.305
  C  C45  1  0.834700  0.417400  0.053700  1.0  -0.1345
  C  C46  1  0.739600  0.533800  0.038300  1.0  -0.2298
  C  C47  1  0.676900  0.581500  0.959500  1.0  0.3046
  C  C48  1  0.698900  0.510600  0.898100  1.0  -0.1355
  C  C49  1  0.807900  0.314200  0.848000  1.0  0.7583
  C  C50  1  0.701400  0.604800  0.107900  1.0  0.6895
  C  C51  1  0.901300  0.404100  0.514200  1.0  0.3116
  C  C52  1  0.032900  0.406200  0.569000  1.0  -0.2632
  C  C53  1  0.130600  0.503000  0.553600  1.0  -0.1192
  C  C54  1  0.071500  0.308400  0.643000  1.0  0.8026
  C  C55  1  0.649800  0.924100  0.536000  1.0  0.313
  C  C56  1  0.431500  0.107300  0.528000  1.0  -0.1242
  C  C57  1  0.582100  0.031900  0.563900  1.0  -0.2663
  C  C58  1  0.662600  0.069400  0.633700  1.0  0.79
  C  C59  1  0.323100  0.972100  0.018400  1.0  -0.141
  C  C60  1  0.567100  0.047200  0.914600  1.0  0.3754
  C  C61  1  0.386800  0.017100  0.935300  1.0  -0.1968
  C  C62  1  0.252100  0.034900  0.871500  1.0  0.7585
  O  O63  1  0.074200  0.780300  0.145500  1.0  -0.6779
  O  O64  1  0.302100  0.656300  0.209380  1.0  -0.7616
  O  O65  1  0.267100  0.442500  0.817500  1.0  -0.6866
  O  O66  1  0.372300  0.285600  0.908600  1.0  -0.7155
  O  O67  1  0.018100  0.758200  0.992400  1.0  -0.5018
  O  O68  1  0.418800  0.303800  0.060800  1.0  -0.5362
  O  O69  1  0.021300  0.778700  0.343410  1.0  -0.7749
  O  O70  1  0.808900  0.682500  0.312600  1.0  -0.7369
  O  O71  1  0.202300  0.686800  0.473100  1.0  -0.524
  O  O72  1  0.411000  0.833600  0.342100  1.0  -0.7686
  O  O73  1  0.197100  0.995800  0.336000  1.0  -0.7491
  O  O74  1  0.203100  0.155300  0.432700  1.0  -0.5125
  O  O75  1  0.728800  0.893500  0.198930  1.0  -0.8003
  O  O76  1  0.886800  0.018800  0.111760  1.0  -0.6914
  O  O77  1  0.366500  0.906100  0.165150  1.0  -0.8819
  O  O78  1  0.925800  0.219700  0.854500  1.0  -0.6847
  O  O79  1  0.697900  0.343700  0.790620  1.0  -0.7647
  O  O80  1  0.732900  0.557500  0.182500  1.0  -0.6869
  O  O81  1  0.627700  0.714400  0.091400  1.0  -0.7166
  O  O82  1  0.981900  0.241800  0.007600  1.0  -0.5013
  O  O83  1  0.581200  0.696200  0.939200  1.0  -0.5368
  O  O84  1  0.978700  0.221300  0.656590  1.0  -0.7727
  O  O85  1  0.191100  0.317500  0.687400  1.0  -0.7375
  O  O86  1  0.797700  0.313200  0.526900  1.0  -0.5245
  O  O87  1  0.589000  0.166400  0.657900  1.0  -0.7634
  O  O88  1  0.802900  0.004200  0.664000  1.0  -0.7474
  O  O89  1  0.796900  0.844700  0.567300  1.0  -0.513
  O  O90  1  0.271200  0.106500  0.801070  1.0  -0.798
  O  O91  1  0.113200  0.981200  0.888240  1.0  -0.6898
  O  O92  1  0.633500  0.093900  0.834850  1.0  -0.8804
