# generated using pymatgen
data_Gd2H9(C4O3)5
_symmetry_space_group_name_H-M   'P 1'
_cell_length_a   7.39910000
_cell_length_b   11.47300000
_cell_length_c   16.23350000
_cell_angle_alpha   79.03800000
_cell_angle_beta   82.58800000
_cell_angle_gamma   79.97200000
_symmetry_Int_Tables_number   1
_chemical_formula_structural   Gd2H9(C4O3)5
_chemical_formula_sum   'Gd4 H18 C40 O30'
_cell_volume   1325.67645572
_cell_formula_units_Z   2
loop_
 _symmetry_equiv_pos_site_id
 _symmetry_equiv_pos_as_xyz
  1  'x, y, z'
loop_
 _atom_site_type_symbol
 _atom_site_label
 _atom_site_symmetry_multiplicity
 _atom_site_fract_x
 _atom_site_fract_y
 _atom_site_fract_z
 _atom_site_occupancy
 _atom_site_charge
  Gd  Gd1  1  0.055830  0.936220  0.227340  1.0  2.1593
  Gd  Gd2  1  0.553300  0.737270  0.236450  1.0  2.2392
  Gd  Gd3  1  0.944170  0.063780  0.772660  1.0  2.1551
  Gd  Gd4  1  0.446700  0.262730  0.763550  1.0  2.2391
  H  H5  1  0.002300  0.791400  0.033900  1.0  0.3956
  H  H6  1  0.434100  0.271200  0.019900  1.0  0.3958
  H  H7  1  0.158100  0.742400  0.440200  1.0  0.3994
  H  H8  1  0.153200  0.127700  0.406000  1.0  0.3847
  H  H9  1  0.122900  0.612100  0.895000  1.0  0.1253
  H  H10  1  0.350800  0.461500  0.153700  1.0  0.1217
  H  H11  1  0.776200  0.497900  0.412600  1.0  0.1201
  H  H12  1  0.606600  0.821100  0.451800  1.0  0.1062
  H  H13  1  0.796100  0.043600  0.971100  1.0  0.0978
  H  H14  1  0.997700  0.208600  0.966100  1.0  0.3954
  H  H15  1  0.565900  0.728800  0.980100  1.0  0.3962
  H  H16  1  0.841900  0.257600  0.559800  1.0  0.3982
  H  H17  1  0.846800  0.872300  0.594000  1.0  0.3855
  H  H18  1  0.877100  0.387900  0.105000  1.0  0.1255
  H  H19  1  0.649200  0.538500  0.846300  1.0  0.1219
  H  H20  1  0.223800  0.502100  0.587400  1.0  0.1198
  H  H21  1  0.393400  0.178900  0.548200  1.0  0.1068
  H  H22  1  0.203900  0.956400  0.028900  1.0  0.0974
  C  C23  1  0.204000  0.607700  0.087700  1.0  -0.2356
  C  C24  1  0.128800  0.649800  0.010900  1.0  0.3024
  C  C25  1  0.164600  0.580900  0.947500  1.0  -0.1531
  C  C26  1  0.261900  0.466300  0.962200  1.0  -0.217
  C  C27  1  0.326500  0.419700  0.041100  1.0  0.2877
  C  C28  1  0.302000  0.491000  0.102400  1.0  -0.1378
  C  C29  1  0.189000  0.686700  0.151900  1.0  0.699
  C  C30  1  0.299100  0.393600  0.893100  1.0  0.6879
  C  C31  1  0.099500  0.594600  0.485300  1.0  0.3083
  C  C32  1  0.965800  0.594000  0.433500  1.0  -0.2163
  C  C33  1  0.865700  0.499000  0.447700  1.0  -0.1181
  C  C34  1  0.925900  0.694700  0.359600  1.0  0.7305
  C  C35  1  0.350200  0.078200  0.466600  1.0  0.3117
  C  C36  1  0.564100  0.893200  0.471000  1.0  -0.1198
  C  C37  1  0.414800  0.970100  0.436100  1.0  -0.267
  C  C38  1  0.330700  0.934800  0.367000  1.0  0.726
  C  C39  1  0.676000  0.026700  0.982200  1.0  -0.133
  C  C40  1  0.432400  0.954700  0.085400  1.0  0.3226
  C  C41  1  0.611900  0.984100  0.064900  1.0  -0.1872
  C  C42  1  0.745400  0.967100  0.127500  1.0  0.6911
  C  C43  1  0.796000  0.392300  0.912300  1.0  -0.2358
  C  C44  1  0.871200  0.350200  0.989100  1.0  0.3023
  C  C45  1  0.835400  0.419100  0.052500  1.0  -0.1537
  C  C46  1  0.738100  0.533700  0.037800  1.0  -0.2163
  C  C47  1  0.673500  0.580300  0.958900  1.0  0.2857
  C  C48  1  0.698000  0.509000  0.897600  1.0  -0.1369
  C  C49  1  0.811000  0.313300  0.848100  1.0  0.6992
  C  C50  1  0.700900  0.606400  0.106900  1.0  0.6894
  C  C51  1  0.900500  0.405400  0.514700  1.0  0.3082
  C  C52  1  0.034200  0.406000  0.566500  1.0  -0.2162
  C  C53  1  0.134300  0.501000  0.552300  1.0  -0.1181
  C  C54  1  0.074100  0.305300  0.640400  1.0  0.7325
  C  C55  1  0.649800  0.921800  0.533400  1.0  0.3112
  C  C56  1  0.435900  0.106800  0.529000  1.0  -0.1217
  C  C57  1  0.585200  0.029900  0.563900  1.0  -0.2654
  C  C58  1  0.669300  0.065200  0.633000  1.0  0.7253
  C  C59  1  0.324000  0.973300  0.017800  1.0  -0.1322
  C  C60  1  0.567600  0.045300  0.914600  1.0  0.3226
  C  C61  1  0.388100  0.015900  0.935100  1.0  -0.1865
  C  C62  1  0.254600  0.032900  0.872500  1.0  0.6902
  O  O63  1  0.071300  0.781300  0.145600  1.0  -0.6588
  O  O64  1  0.295400  0.658500  0.210100  1.0  -0.7666
  O  O65  1  0.262600  0.438500  0.818800  1.0  -0.6917
  O  O66  1  0.379200  0.284600  0.909500  1.0  -0.685
  O  O67  1  0.015500  0.756400  0.993500  1.0  -0.4981
  O  O68  1  0.424000  0.305500  0.060600  1.0  -0.5294
  O  O69  1  0.018700  0.779800  0.345500  1.0  -0.6847
  O  O70  1  0.802800  0.686600  0.316400  1.0  -0.7322
  O  O71  1  0.205400  0.684500  0.472500  1.0  -0.515
  O  O72  1  0.398300  0.838600  0.342100  1.0  -0.7422
  O  O73  1  0.192000  0.002700  0.337600  1.0  -0.6667
  O  O74  1  0.205900  0.158700  0.435600  1.0  -0.5073
  O  O75  1  0.728400  0.895800  0.199000  1.0  -0.7183
  O  O76  1  0.884000  0.021100  0.111300  1.0  -0.6836
  O  O77  1  0.365800  0.910500  0.164800  1.0  -0.7488
  O  O78  1  0.928700  0.218700  0.854400  1.0  -0.6622
  O  O79  1  0.704600  0.341500  0.789900  1.0  -0.7664
  O  O80  1  0.737400  0.561500  0.181200  1.0  -0.692
  O  O81  1  0.620800  0.715400  0.090500  1.0  -0.6838
  O  O82  1  0.984500  0.243600  0.006500  1.0  -0.4986
  O  O83  1  0.576000  0.694500  0.939400  1.0  -0.5301
  O  O84  1  0.981300  0.220200  0.654500  1.0  -0.6833
  O  O85  1  0.197200  0.313400  0.683600  1.0  -0.7316
  O  O86  1  0.794600  0.315500  0.527500  1.0  -0.5156
  O  O87  1  0.601700  0.161400  0.657900  1.0  -0.7396
  O  O88  1  0.808000  0.997300  0.662400  1.0  -0.6664
  O  O89  1  0.794100  0.841300  0.564400  1.0  -0.5086
  O  O90  1  0.271600  0.104200  0.801000  1.0  -0.7163
  O  O91  1  0.116000  0.978900  0.888700  1.0  -0.6823
  O  O92  1  0.634200  0.089500  0.835200  1.0  -0.7471
