# generated using pymatgen
data_Nd(CO2)4
_symmetry_space_group_name_H-M   'P 1'
_cell_length_a   7.81300000
_cell_length_b   11.88000000
_cell_length_c   12.99400000
_cell_angle_alpha   93.09200000
_cell_angle_beta   93.93800000
_cell_angle_gamma   108.35900000
_symmetry_Int_Tables_number   1
_chemical_formula_structural   Nd(CO2)4
_chemical_formula_sum   'Nd4 C16 O32'
_cell_volume   1138.34948839
_cell_formula_units_Z   4
loop_
 _symmetry_equiv_pos_site_id
 _symmetry_equiv_pos_as_xyz
  1  'x, y, z'
loop_
 _atom_site_type_symbol
 _atom_site_label
 _atom_site_symmetry_multiplicity
 _atom_site_fract_x
 _atom_site_fract_y
 _atom_site_fract_z
 _atom_site_occupancy
 _atom_site_charge
  Nd  Nd1  1  0.150040  0.777760  0.031900  1.0  2.2503
  Nd  Nd2  1  0.156510  0.782150  0.532070  1.0  2.2627
  Nd  Nd3  1  0.849960  0.222240  0.968100  1.0  2.2508
  Nd  Nd4  1  0.843490  0.217850  0.467930  1.0  2.2642
  C  C5  1  0.059800  0.745600  0.276200  1.0  0.5996
  C  C6  1  0.268500  0.804400  0.286200  1.0  0.5659
  C  C7  1  0.181800  0.714300  0.778300  1.0  0.5766
  C  C8  1  0.118400  0.826100  0.784100  1.0  0.62
  C  C9  1  0.547700  0.955100  0.982700  1.0  0.5664
  C  C10  1  0.902600  0.957200  0.502500  1.0  0.582
  C  C11  1  0.909000  0.503600  0.973600  1.0  0.5694
  C  C12  1  0.093900  0.497800  0.483200  1.0  0.5915
  C  C13  1  0.940200  0.254400  0.723800  1.0  0.601
  C  C14  1  0.731500  0.195600  0.713800  1.0  0.5656
  C  C15  1  0.818200  0.285700  0.221700  1.0  0.5756
  C  C16  1  0.881600  0.173900  0.215900  1.0  0.621
  C  C17  1  0.452300  0.044900  0.017300  1.0  0.5655
  C  C18  1  0.097400  0.042800  0.497500  1.0  0.5807
  C  C19  1  0.091000  0.496400  0.026400  1.0  0.5686
  C  C20  1  0.906100  0.502200  0.516800  1.0  0.5928
  O  O21  1  0.984700  0.727100  0.357800  1.0  -0.5831
  O  O22  1  0.982300  0.718800  0.186800  1.0  -0.6013
  O  O23  1  0.341200  0.825400  0.203600  1.0  -0.5606
  O  O24  1  0.344600  0.821600  0.376500  1.0  -0.5755
  O  O25  1  0.211700  0.680200  0.690600  1.0  -0.5949
  O  O26  1  0.199200  0.669700  0.861500  1.0  -0.5139
  O  O27  1  0.108500  0.873300  0.700900  1.0  -0.5814
  O  O28  1  0.081300  0.858500  0.869500  1.0  -0.5986
  O  O29  1  0.468800  0.848100  0.989700  1.0  -0.556
  O  O30  1  0.701100  0.999400  0.949300  1.0  -0.5934
  O  O31  1  0.884800  0.852000  0.516900  1.0  -0.5548
  O  O32  1  0.778000  0.002800  0.492000  1.0  -0.5952
  O  O33  1  0.888200  0.603800  0.977500  1.0  -0.5565
  O  O34  1  0.799300  0.408700  0.930700  1.0  -0.5552
  O  O35  1  0.212700  0.595600  0.477800  1.0  -0.5904
  O  O36  1  0.109500  0.397400  0.463800  1.0  -0.5775
  O  O37  1  0.015300  0.272900  0.642200  1.0  -0.5838
  O  O38  1  0.017700  0.281200  0.813200  1.0  -0.6014
  O  O39  1  0.658800  0.174600  0.796400  1.0  -0.5602
  O  O40  1  0.655400  0.178400  0.623500  1.0  -0.5725
  O  O41  1  0.788300  0.319800  0.309400  1.0  -0.5941
  O  O42  1  0.800800  0.330300  0.138500  1.0  -0.5126
  O  O43  1  0.891500  0.126700  0.299100  1.0  -0.5784
  O  O44  1  0.918700  0.141500  0.130500  1.0  -0.5964
  O  O45  1  0.531200  0.151900  0.010300  1.0  -0.5561
  O  O46  1  0.298900  0.000600  0.050700  1.0  -0.5929
  O  O47  1  0.115200  0.148000  0.483100  1.0  -0.5561
  O  O48  1  0.222000  0.997200  0.508000  1.0  -0.5972
  O  O49  1  0.111800  0.396200  0.022500  1.0  -0.5579
  O  O50  1  0.200700  0.591300  0.069300  1.0  -0.5541
  O  O51  1  0.787300  0.404400  0.522200  1.0  -0.5916
  O  O52  1  0.890500  0.602600  0.536200  1.0  -0.5768
