# generated using pymatgen
data_Yb(CO2)4
_symmetry_space_group_name_H-M   'P 1'
_cell_length_a   8.79700000
_cell_length_b   16.15500000
_cell_length_c   32.17000000
_cell_angle_alpha   90.00000000
_cell_angle_beta   90.00000000
_cell_angle_gamma   90.00000000
_symmetry_Int_Tables_number   1
_chemical_formula_structural   Yb(CO2)4
_chemical_formula_sum   'Yb16 C64 O128'
_cell_volume   4571.85676095
_cell_formula_units_Z   16
loop_
 _symmetry_equiv_pos_site_id
 _symmetry_equiv_pos_as_xyz
  1  'x, y, z'
loop_
 _atom_site_type_symbol
 _atom_site_label
 _atom_site_symmetry_multiplicity
 _atom_site_fract_x
 _atom_site_fract_y
 _atom_site_fract_z
 _atom_site_occupancy
 _atom_site_charge
  Yb  Yb1  1  0.889790  0.231600  0.064070  1.0  1.1631
  Yb  Yb2  1  0.889790  0.731600  0.564070  1.0  1.1631
  Yb  Yb3  1  0.389790  0.231600  0.564070  1.0  1.1631
  Yb  Yb4  1  0.389790  0.731600  0.064070  1.0  1.1631
  Yb  Yb5  1  0.889790  0.768400  0.935930  1.0  1.1639
  Yb  Yb6  1  0.889790  0.268400  0.435930  1.0  1.1639
  Yb  Yb7  1  0.389790  0.768400  0.435930  1.0  1.1639
  Yb  Yb8  1  0.389790  0.268400  0.935930  1.0  1.1639
  Yb  Yb9  1  0.639790  0.981600  0.185930  1.0  1.1638
  Yb  Yb10  1  0.639790  0.481600  0.685930  1.0  1.1638
  Yb  Yb11  1  0.139790  0.981600  0.685930  1.0  1.1638
  Yb  Yb12  1  0.139790  0.481600  0.185930  1.0  1.1638
  Yb  Yb13  1  0.639790  0.518400  0.314070  1.0  1.1636
  Yb  Yb14  1  0.639790  0.018400  0.814070  1.0  1.1636
  Yb  Yb15  1  0.139790  0.518400  0.814070  1.0  1.1636
  Yb  Yb16  1  0.139790  0.018400  0.314070  1.0  1.1636
  C  C17  1  0.142100  0.210300  0.998230  1.0  0.6334
  C  C18  1  0.145700  0.303700  0.006010  1.0  0.5942
  C  C19  1  0.938600  0.379700  0.125940  1.0  0.6903
  C  C20  1  0.071500  0.320000  0.134910  1.0  0.6049
  C  C21  1  0.142100  0.710300  0.498230  1.0  0.6334
  C  C22  1  0.145700  0.803700  0.506010  1.0  0.5942
  C  C23  1  0.938600  0.879700  0.625940  1.0  0.6903
  C  C24  1  0.071500  0.820000  0.634910  1.0  0.6049
  C  C25  1  0.642100  0.210300  0.498230  1.0  0.6334
  C  C26  1  0.645700  0.303700  0.506010  1.0  0.5942
  C  C27  1  0.438600  0.379700  0.625940  1.0  0.6903
  C  C28  1  0.571500  0.320000  0.634910  1.0  0.6049
  C  C29  1  0.642100  0.710300  0.998230  1.0  0.6334
  C  C30  1  0.645700  0.803700  0.006010  1.0  0.5942
  C  C31  1  0.438600  0.879700  0.125940  1.0  0.6903
  C  C32  1  0.571500  0.820000  0.134910  1.0  0.6049
  C  C33  1  0.142100  0.789700  0.001770  1.0  0.6323
  C  C34  1  0.145700  0.696300  0.993990  1.0  0.5958
  C  C35  1  0.938600  0.620300  0.874060  1.0  0.691
  C  C36  1  0.071500  0.680000  0.865090  1.0  0.6044
  C  C37  1  0.142100  0.289700  0.501770  1.0  0.6323
  C  C38  1  0.145700  0.196300  0.493990  1.0  0.5958
  C  C39  1  0.938600  0.120300  0.374060  1.0  0.691
  C  C40  1  0.071500  0.180000  0.365090  1.0  0.6044
  C  C41  1  0.642100  0.789700  0.501770  1.0  0.6323
  C  C42  1  0.645700  0.696300  0.493990  1.0  0.5958
  C  C43  1  0.438600  0.620300  0.374060  1.0  0.691
  C  C44  1  0.571500  0.680000  0.365090  1.0  0.6044
  C  C45  1  0.642100  0.289700  0.001770  1.0  0.6323
  C  C46  1  0.645700  0.196300  0.993990  1.0  0.5958
  C  C47  1  0.438600  0.120300  0.874060  1.0  0.691
  C  C48  1  0.571500  0.180000  0.865090  1.0  0.6044
  C  C49  1  0.892100  0.960300  0.251770  1.0  0.6335
  C  C50  1  0.895700  0.053700  0.243990  1.0  0.5931
  C  C51  1  0.688600  0.129700  0.124060  1.0  0.6903
  C  C52  1  0.821500  0.070000  0.115090  1.0  0.6047
  C  C53  1  0.892100  0.460300  0.751770  1.0  0.6335
  C  C54  1  0.895700  0.553700  0.743990  1.0  0.5931
  C  C55  1  0.688600  0.629700  0.624060  1.0  0.6903
  C  C56  1  0.821500  0.570000  0.615090  1.0  0.6047
  C  C57  1  0.392100  0.960300  0.751770  1.0  0.6335
  C  C58  1  0.395700  0.053700  0.743990  1.0  0.5931
  C  C59  1  0.188600  0.129700  0.624060  1.0  0.6903
  C  C60  1  0.321500  0.070000  0.615090  1.0  0.6047
  C  C61  1  0.392100  0.460300  0.251770  1.0  0.6335
  C  C62  1  0.395700  0.553700  0.243990  1.0  0.5931
  C  C63  1  0.188600  0.629700  0.124060  1.0  0.6903
  C  C64  1  0.321500  0.570000  0.115090  1.0  0.6047
  C  C65  1  0.892100  0.539700  0.248230  1.0  0.6325
  C  C66  1  0.895700  0.446300  0.256010  1.0  0.5948
  C  C67  1  0.688600  0.370300  0.375940  1.0  0.6911
  C  C68  1  0.821500  0.430000  0.384910  1.0  0.6042
  C  C69  1  0.892100  0.039700  0.748230  1.0  0.6325
  C  C70  1  0.895700  0.946300  0.756010  1.0  0.5948
  C  C71  1  0.688600  0.870300  0.875940  1.0  0.6911
  C  C72  1  0.821500  0.930000  0.884910  1.0  0.6042
  C  C73  1  0.392100  0.539700  0.748230  1.0  0.6325
  C  C74  1  0.395700  0.446300  0.756010  1.0  0.5948
  C  C75  1  0.188600  0.370300  0.875940  1.0  0.6911
  C  C76  1  0.321500  0.430000  0.884910  1.0  0.6042
  C  C77  1  0.392100  0.039700  0.248230  1.0  0.6325
  C  C78  1  0.395700  0.946300  0.256010  1.0  0.5948
  C  C79  1  0.188600  0.870300  0.375940  1.0  0.6911
  C  C80  1  0.321500  0.930000  0.384910  1.0  0.6042
  O  O81  1  0.060800  0.166900  0.021730  1.0  -0.5071
  O  O82  1  0.221500  0.183300  0.969210  1.0  -0.4892
  O  O83  1  0.238400  0.343800  0.984230  1.0  -0.4115
  O  O84  1  0.054500  0.329800  0.032740  1.0  -0.4277
  O  O85  1  0.839600  0.352700  0.101990  1.0  -0.4913
  O  O86  1  0.941100  0.447700  0.143520  1.0  -0.4584
  O  O87  1  0.069100  0.250200  0.116830  1.0  -0.4738
  O  O88  1  0.170900  0.346300  0.159650  1.0  -0.4259
  O  O89  1  0.060800  0.666900  0.521730  1.0  -0.5071
  O  O90  1  0.221500  0.683300  0.469210  1.0  -0.4892
  O  O91  1  0.238400  0.843800  0.484230  1.0  -0.4115
  O  O92  1  0.054500  0.829800  0.532740  1.0  -0.4277
  O  O93  1  0.839600  0.852700  0.601990  1.0  -0.4913
  O  O94  1  0.941100  0.947700  0.643520  1.0  -0.4584
  O  O95  1  0.069100  0.750200  0.616830  1.0  -0.4738
  O  O96  1  0.170900  0.846300  0.659650  1.0  -0.4259
  O  O97  1  0.560800  0.166900  0.521730  1.0  -0.5071
  O  O98  1  0.721500  0.183300  0.469210  1.0  -0.4892
  O  O99  1  0.738400  0.343800  0.484230  1.0  -0.4115
  O  O100  1  0.554500  0.329800  0.532740  1.0  -0.4277
  O  O101  1  0.339600  0.352700  0.601990  1.0  -0.4913
  O  O102  1  0.441100  0.447700  0.643520  1.0  -0.4584
  O  O103  1  0.569100  0.250200  0.616830  1.0  -0.4738
  O  O104  1  0.670900  0.346300  0.659650  1.0  -0.4259
  O  O105  1  0.560800  0.666900  0.021730  1.0  -0.5071
  O  O106  1  0.721500  0.683300  0.969210  1.0  -0.4892
  O  O107  1  0.738400  0.843800  0.984230  1.0  -0.4115
  O  O108  1  0.554500  0.829800  0.032740  1.0  -0.4277
  O  O109  1  0.339600  0.852700  0.101990  1.0  -0.4913
  O  O110  1  0.441100  0.947700  0.143520  1.0  -0.4584
  O  O111  1  0.569100  0.750200  0.116830  1.0  -0.4738
  O  O112  1  0.670900  0.846300  0.159650  1.0  -0.4259
  O  O113  1  0.060800  0.833100  0.978270  1.0  -0.5055
  O  O114  1  0.221500  0.816700  0.030790  1.0  -0.4892
  O  O115  1  0.238400  0.656200  0.015770  1.0  -0.415
  O  O116  1  0.054500  0.670200  0.967260  1.0  -0.4284
  O  O117  1  0.839600  0.647300  0.898010  1.0  -0.4903
  O  O118  1  0.941100  0.552300  0.856480  1.0  -0.4586
  O  O119  1  0.069100  0.749800  0.883170  1.0  -0.4732
  O  O120  1  0.170900  0.653700  0.840350  1.0  -0.4227
  O  O121  1  0.060800  0.333100  0.478270  1.0  -0.5055
  O  O122  1  0.221500  0.316700  0.530790  1.0  -0.4892
  O  O123  1  0.238400  0.156200  0.515770  1.0  -0.415
  O  O124  1  0.054500  0.170200  0.467260  1.0  -0.4284
  O  O125  1  0.839600  0.147300  0.398010  1.0  -0.4903
  O  O126  1  0.941100  0.052300  0.356480  1.0  -0.4586
  O  O127  1  0.069100  0.249800  0.383170  1.0  -0.4732
  O  O128  1  0.170900  0.153700  0.340350  1.0  -0.4227
  O  O129  1  0.560800  0.833100  0.478270  1.0  -0.5055
  O  O130  1  0.721500  0.816700  0.530790  1.0  -0.4892
  O  O131  1  0.738400  0.656200  0.515770  1.0  -0.415
  O  O132  1  0.554500  0.670200  0.467260  1.0  -0.4284
  O  O133  1  0.339600  0.647300  0.398010  1.0  -0.4903
  O  O134  1  0.441100  0.552300  0.356480  1.0  -0.4586
  O  O135  1  0.569100  0.749800  0.383170  1.0  -0.4732
  O  O136  1  0.670900  0.653700  0.340350  1.0  -0.4227
  O  O137  1  0.560800  0.333100  0.978270  1.0  -0.5055
  O  O138  1  0.721500  0.316700  0.030790  1.0  -0.4892
  O  O139  1  0.738400  0.156200  0.015770  1.0  -0.415
  O  O140  1  0.554500  0.170200  0.967260  1.0  -0.4284
  O  O141  1  0.339600  0.147300  0.898010  1.0  -0.4903
  O  O142  1  0.441100  0.052300  0.856480  1.0  -0.4586
  O  O143  1  0.569100  0.249800  0.883170  1.0  -0.4732
  O  O144  1  0.670900  0.153700  0.840350  1.0  -0.4227
  O  O145  1  0.810800  0.916900  0.228270  1.0  -0.5065
  O  O146  1  0.971500  0.933300  0.280790  1.0  -0.4925
  O  O147  1  0.988400  0.093800  0.265770  1.0  -0.4102
  O  O148  1  0.804500  0.079800  0.217260  1.0  -0.4267
  O  O149  1  0.589600  0.102700  0.148010  1.0  -0.4911
  O  O150  1  0.691100  0.197700  0.106480  1.0  -0.4621
  O  O151  1  0.819100  0.000200  0.133170  1.0  -0.4752
  O  O152  1  0.920900  0.096300  0.090350  1.0  -0.4244
  O  O153  1  0.810800  0.416900  0.728270  1.0  -0.5065
  O  O154  1  0.971500  0.433300  0.780790  1.0  -0.4925
  O  O155  1  0.988400  0.593800  0.765770  1.0  -0.4102
  O  O156  1  0.804500  0.579800  0.717260  1.0  -0.4267
  O  O157  1  0.589600  0.602700  0.648010  1.0  -0.4911
  O  O158  1  0.691100  0.697700  0.606480  1.0  -0.4621
  O  O159  1  0.819100  0.500200  0.633170  1.0  -0.4752
  O  O160  1  0.920900  0.596300  0.590350  1.0  -0.4244
  O  O161  1  0.310800  0.916900  0.728270  1.0  -0.5065
  O  O162  1  0.471500  0.933300  0.780790  1.0  -0.4925
  O  O163  1  0.488400  0.093800  0.765770  1.0  -0.4102
  O  O164  1  0.304500  0.079800  0.717260  1.0  -0.4267
  O  O165  1  0.089600  0.102700  0.648010  1.0  -0.4911
  O  O166  1  0.191100  0.197700  0.606480  1.0  -0.4621
  O  O167  1  0.319100  0.000200  0.633170  1.0  -0.4752
  O  O168  1  0.420900  0.096300  0.590350  1.0  -0.4244
  O  O169  1  0.310800  0.416900  0.228270  1.0  -0.5065
  O  O170  1  0.471500  0.433300  0.280790  1.0  -0.4925
  O  O171  1  0.488400  0.593800  0.265770  1.0  -0.4102
  O  O172  1  0.304500  0.579800  0.217260  1.0  -0.4267
  O  O173  1  0.089600  0.602700  0.148010  1.0  -0.4911
  O  O174  1  0.191100  0.697700  0.106480  1.0  -0.4621
  O  O175  1  0.319100  0.500200  0.133170  1.0  -0.4752
  O  O176  1  0.420900  0.596300  0.090350  1.0  -0.4244
  O  O177  1  0.810800  0.583100  0.271730  1.0  -0.5063
  O  O178  1  0.971500  0.566700  0.219210  1.0  -0.4918
  O  O179  1  0.988400  0.406200  0.234230  1.0  -0.4141
  O  O180  1  0.804500  0.420200  0.282740  1.0  -0.4287
  O  O181  1  0.589600  0.397300  0.351990  1.0  -0.4903
  O  O182  1  0.691100  0.302300  0.393520  1.0  -0.4616
  O  O183  1  0.819100  0.499800  0.366830  1.0  -0.473
  O  O184  1  0.920900  0.403700  0.409650  1.0  -0.4224
  O  O185  1  0.810800  0.083100  0.771730  1.0  -0.5063
  O  O186  1  0.971500  0.066700  0.719210  1.0  -0.4918
  O  O187  1  0.988400  0.906200  0.734230  1.0  -0.4141
  O  O188  1  0.804500  0.920200  0.782740  1.0  -0.4287
  O  O189  1  0.589600  0.897300  0.851990  1.0  -0.4903
  O  O190  1  0.691100  0.802300  0.893520  1.0  -0.4616
  O  O191  1  0.819100  0.999800  0.866830  1.0  -0.473
  O  O192  1  0.920900  0.903700  0.909650  1.0  -0.4224
  O  O193  1  0.310800  0.583100  0.771730  1.0  -0.5063
  O  O194  1  0.471500  0.566700  0.719210  1.0  -0.4918
  O  O195  1  0.488400  0.406200  0.734230  1.0  -0.4141
  O  O196  1  0.304500  0.420200  0.782740  1.0  -0.4287
  O  O197  1  0.089600  0.397300  0.851990  1.0  -0.4903
  O  O198  1  0.191100  0.302300  0.893520  1.0  -0.4616
  O  O199  1  0.319100  0.499800  0.866830  1.0  -0.473
  O  O200  1  0.420900  0.403700  0.909650  1.0  -0.4224
  O  O201  1  0.310800  0.083100  0.271730  1.0  -0.5063
  O  O202  1  0.471500  0.066700  0.219210  1.0  -0.4918
  O  O203  1  0.488400  0.906200  0.234230  1.0  -0.4141
  O  O204  1  0.304500  0.920200  0.282740  1.0  -0.4287
  O  O205  1  0.089600  0.897300  0.351990  1.0  -0.4903
  O  O206  1  0.191100  0.802300  0.393520  1.0  -0.4616
  O  O207  1  0.319100  0.999800  0.366830  1.0  -0.473
  O  O208  1  0.420900  0.903700  0.409650  1.0  -0.4224
