# generated using pymatgen
data_La(CO2)5
_symmetry_space_group_name_H-M   'P 1'
_cell_length_a   11.66500000
_cell_length_b   11.92400000
_cell_length_c   13.22300000
_cell_angle_alpha   104.58500000
_cell_angle_beta   108.26800000
_cell_angle_gamma   111.13200000
_symmetry_Int_Tables_number   1
_chemical_formula_structural   La(CO2)5
_chemical_formula_sum   'La4 C20 O40'
_cell_volume   1484.48114267
_cell_formula_units_Z   4
loop_
 _symmetry_equiv_pos_site_id
 _symmetry_equiv_pos_as_xyz
  1  'x, y, z'
loop_
 _atom_site_type_symbol
 _atom_site_label
 _atom_site_symmetry_multiplicity
 _atom_site_fract_x
 _atom_site_fract_y
 _atom_site_fract_z
 _atom_site_occupancy
 _atom_site_charge
  La  La1  1  0.749980  0.087460  0.925040  1.0  2.1294
  La  La2  1  0.258880  0.590550  0.420860  1.0  2.1312
  La  La3  1  0.250020  0.912540  0.074960  1.0  2.1299
  La  La4  1  0.741120  0.409450  0.579140  1.0  2.1316
  C  C5  1  0.001100  0.384500  0.142800  1.0  0.6939
  C  C6  1  0.995000  0.290700  0.204300  1.0  0.664
  C  C7  1  0.670600  0.249100  0.750600  1.0  0.655
  C  C8  1  0.767100  0.208000  0.714800  1.0  0.6934
  C  C9  1  0.445500  0.853700  0.681300  1.0  0.687
  C  C10  1  0.556200  0.832600  0.653700  1.0  0.6752
  C  C11  1  0.050900  0.063700  0.001200  1.0  0.6775
  C  C12  1  0.502700  0.068400  0.009300  1.0  0.6352
  C  C13  1  0.499100  0.488400  0.439800  1.0  0.6555
  C  C14  1  0.962000  0.519900  0.456000  1.0  0.6473
  C  C15  1  0.998900  0.615500  0.857200  1.0  0.6926
  C  C16  1  0.005000  0.709300  0.795700  1.0  0.6644
  C  C17  1  0.329400  0.750900  0.249400  1.0  0.6571
  C  C18  1  0.232900  0.792000  0.285200  1.0  0.6931
  C  C19  1  0.554500  0.146300  0.318700  1.0  0.6867
  C  C20  1  0.443800  0.167400  0.346300  1.0  0.6764
  C  C21  1  0.949100  0.936300  0.998800  1.0  0.6764
  C  C22  1  0.497300  0.931600  0.990700  1.0  0.6346
  C  C23  1  0.500900  0.511600  0.560200  1.0  0.6547
  C  C24  1  0.038000  0.480100  0.544000  1.0  0.6462
  O  O25  1  0.094300  0.501900  0.200400  1.0  -0.5665
  O  O26  1  0.913300  0.336900  0.039700  1.0  -0.5065
  O  O27  1  0.090000  0.336800  0.306500  1.0  -0.558
  O  O28  1  0.897600  0.174600  0.149500  1.0  -0.5624
  O  O29  1  0.622300  0.306800  0.696200  1.0  -0.5614
  O  O30  1  0.647000  0.220500  0.829400  1.0  -0.5571
  O  O31  1  0.825400  0.160700  0.774600  1.0  -0.5676
  O  O32  1  0.781300  0.225000  0.629500  1.0  -0.5503
  O  O33  1  0.486800  0.946300  0.776400  1.0  -0.5557
  O  O34  1  0.322300  0.774900  0.609200  1.0  -0.4999
  O  O35  1  0.518800  0.760200  0.549900  1.0  -0.565
  O  O36  1  0.674600  0.888400  0.736200  1.0  -0.5598
  O  O37  1  0.003800  0.136900  0.972200  1.0  -0.566
  O  O38  1  0.171400  0.085200  0.033200  1.0  -0.5091
  O  O39  1  0.611300  0.158000  0.019900  1.0  -0.5117
  O  O40  1  0.401700  0.079700  0.013700  1.0  -0.487
  O  O41  1  0.397000  0.478500  0.360500  1.0  -0.5544
  O  O42  1  0.599300  0.480300  0.429700  1.0  -0.5656
  O  O43  1  0.018700  0.559400  0.396000  1.0  -0.5907
  O  O44  1  0.846800  0.506600  0.446800  1.0  -0.5538
  O  O45  1  0.905700  0.498100  0.799600  1.0  -0.5645
  O  O46  1  0.086700  0.663100  0.960300  1.0  -0.5072
  O  O47  1  0.910000  0.663200  0.693500  1.0  -0.56
  O  O48  1  0.102400  0.825400  0.850500  1.0  -0.5617
  O  O49  1  0.377700  0.693200  0.303800  1.0  -0.5614
  O  O50  1  0.353000  0.779500  0.170600  1.0  -0.5569
  O  O51  1  0.174600  0.839300  0.225400  1.0  -0.5664
  O  O52  1  0.218700  0.775000  0.370500  1.0  -0.5508
  O  O53  1  0.513200  0.053700  0.223600  1.0  -0.554
  O  O54  1  0.677700  0.225100  0.390800  1.0  -0.5013
  O  O55  1  0.481200  0.239800  0.450100  1.0  -0.5629
  O  O56  1  0.325400  0.111600  0.263800  1.0  -0.5608
  O  O57  1  0.996200  0.863100  0.027800  1.0  -0.5635
  O  O58  1  0.828600  0.914800  0.966800  1.0  -0.5074
  O  O59  1  0.388700  0.842000  0.980100  1.0  -0.5106
  O  O60  1  0.598300  0.920300  0.986300  1.0  -0.4883
  O  O61  1  0.603000  0.521500  0.639500  1.0  -0.5512
  O  O62  1  0.400700  0.519700  0.570300  1.0  -0.5651
  O  O63  1  0.981300  0.440600  0.604000  1.0  -0.5898
  O  O64  1  0.153200  0.493400  0.553200  1.0  -0.5559
