# generated using pymatgen
data_Cr3C42O13
_symmetry_space_group_name_H-M   'P 1'
_cell_length_a   12.16470000
_cell_length_b   12.16470000
_cell_length_c   27.19710000
_cell_angle_alpha   90.00000000
_cell_angle_beta   90.00000000
_cell_angle_gamma   120.00000000
_symmetry_Int_Tables_number   1
_chemical_formula_structural   Cr3C42O13
_chemical_formula_sum   'Cr6 C84 O26'
_cell_volume   3485.42735895
_cell_formula_units_Z   2
loop_
 _symmetry_equiv_pos_site_id
 _symmetry_equiv_pos_as_xyz
  1  'x, y, z'
loop_
 _atom_site_type_symbol
 _atom_site_label
 _atom_site_symmetry_multiplicity
 _atom_site_fract_x
 _atom_site_fract_y
 _atom_site_fract_z
 _atom_site_occupancy
 _atom_site_charge
  Cr  Cr1  1  0.813100  0.300400  0.250000  1.0  1.1452
  Cr  Cr2  1  0.699600  0.512700  0.250000  1.0  1.1491
  Cr  Cr3  1  0.487300  0.186900  0.250000  1.0  1.1449
  Cr  Cr4  1  0.300400  0.813100  0.750000  1.0  1.1463
  Cr  Cr5  1  0.512700  0.699600  0.750000  1.0  1.1457
  Cr  Cr6  1  0.186900  0.487300  0.750000  1.0  1.1485
  C  C7  1  0.874600  0.516300  0.178800  1.0  0.7091
  C  C8  1  0.909400  0.537900  0.126500  1.0  -0.0083
  C  C9  1  0.823500  0.453400  0.088200  1.0  0.0005
  C  C10  1  0.854400  0.494600  0.037400  1.0  0.022
  C  C11  1  0.979800  0.584000  0.025900  1.0  0.1041
  C  C12  1  0.049800  0.671600  0.058800  1.0  -0.0189
  C  C13  1  0.998100  0.661000  0.107300  1.0  -0.0627
  C  C14  1  0.483700  0.358300  0.178800  1.0  0.7118
  C  C15  1  0.462100  0.371500  0.126500  1.0  -0.009
  C  C16  1  0.546600  0.370100  0.088200  1.0  0.0029
  C  C17  1  0.505400  0.359800  0.037400  1.0  0.0225
  C  C18  1  0.416000  0.395800  0.025900  1.0  0.1029
  C  C19  1  0.328400  0.378200  0.058800  1.0  -0.0151
  C  C20  1  0.339000  0.337100  0.107300  1.0  -0.0618
  C  C21  1  0.641700  0.125400  0.178800  1.0  0.707
  C  C22  1  0.628500  0.090600  0.126500  1.0  -0.0087
  C  C23  1  0.629900  0.176500  0.088200  1.0  0.0033
  C  C24  1  0.640200  0.145600  0.037400  1.0  0.0189
  C  C25  1  0.604200  0.020200  0.025900  1.0  0.1034
  C  C26  1  0.621800  0.950200  0.058800  1.0  -0.018
  C  C27  1  0.662900  0.001900  0.107300  1.0  -0.062
  C  C28  1  0.874600  0.516300  0.321200  1.0  0.7094
  C  C29  1  0.909400  0.537900  0.373500  1.0  -0.0087
  C  C30  1  0.823500  0.453400  0.411800  1.0  0.0006
  C  C31  1  0.854400  0.494600  0.462600  1.0  0.022
  C  C32  1  0.979800  0.584000  0.474100  1.0  0.1037
  C  C33  1  0.049800  0.671600  0.441200  1.0  -0.0183
  C  C34  1  0.998100  0.661000  0.392700  1.0  -0.0619
  C  C35  1  0.483700  0.358300  0.321200  1.0  0.7122
  C  C36  1  0.462100  0.371500  0.373500  1.0  -0.0093
  C  C37  1  0.546600  0.370100  0.411800  1.0  0.0031
  C  C38  1  0.505400  0.359800  0.462600  1.0  0.0225
  C  C39  1  0.416000  0.395800  0.474100  1.0  0.1028
  C  C40  1  0.328400  0.378200  0.441200  1.0  -0.0143
  C  C41  1  0.339000  0.337100  0.392700  1.0  -0.0606
  C  C42  1  0.641700  0.125400  0.321200  1.0  0.7069
  C  C43  1  0.628500  0.090600  0.373500  1.0  -0.0089
  C  C44  1  0.629900  0.176500  0.411800  1.0  0.0033
  C  C45  1  0.640200  0.145600  0.462600  1.0  0.0197
  C  C46  1  0.604200  0.020200  0.474100  1.0  0.1033
  C  C47  1  0.621800  0.950200  0.441200  1.0  -0.0173
  C  C48  1  0.662900  0.001900  0.392700  1.0  -0.0614
  C  C49  1  0.516300  0.874600  0.821200  1.0  0.7074
  C  C50  1  0.537900  0.909400  0.873500  1.0  -0.0097
  C  C51  1  0.453400  0.823500  0.911800  1.0  0.0029
  C  C52  1  0.494600  0.854400  0.962600  1.0  0.0196
  C  C53  1  0.584000  0.979800  0.974100  1.0  0.1022
  C  C54  1  0.671600  0.049800  0.941200  1.0  -0.0188
  C  C55  1  0.661000  0.998100  0.892700  1.0  -0.0616
  C  C56  1  0.358300  0.483700  0.821200  1.0  0.7098
  C  C57  1  0.371500  0.462100  0.873500  1.0  -0.0075
  C  C58  1  0.370100  0.546600  0.911800  1.0  0.0011
  C  C59  1  0.359800  0.505400  0.962600  1.0  0.0216
  C  C60  1  0.395800  0.416000  0.974100  1.0  0.1025
  C  C61  1  0.378200  0.328400  0.941200  1.0  -0.0167
  C  C62  1  0.337100  0.339000  0.892700  1.0  -0.0628
  C  C63  1  0.125400  0.641700  0.821200  1.0  0.7122
  C  C64  1  0.090600  0.628500  0.873500  1.0  -0.0095
  C  C65  1  0.176500  0.629900  0.911800  1.0  0.0034
  C  C66  1  0.145600  0.640200  0.962600  1.0  0.0227
  C  C67  1  0.020200  0.604200  0.974100  1.0  0.1019
  C  C68  1  0.950200  0.621800  0.941200  1.0  -0.0147
  C  C69  1  0.001900  0.662900  0.892700  1.0  -0.0593
  C  C70  1  0.516300  0.874600  0.678800  1.0  0.7069
  C  C71  1  0.537900  0.909400  0.626500  1.0  -0.0094
  C  C72  1  0.453400  0.823500  0.588200  1.0  0.0029
  C  C73  1  0.494600  0.854400  0.537400  1.0  0.0201
  C  C74  1  0.584000  0.979800  0.525900  1.0  0.1023
  C  C75  1  0.671600  0.049800  0.558800  1.0  -0.0193
  C  C76  1  0.661000  0.998100  0.607300  1.0  -0.0623
  C  C77  1  0.358300  0.483700  0.678800  1.0  0.7096
  C  C78  1  0.371500  0.462100  0.626500  1.0  -0.0072
  C  C79  1  0.370100  0.546600  0.588200  1.0  0.0009
  C  C80  1  0.359800  0.505400  0.537400  1.0  0.021
  C  C81  1  0.395800  0.416000  0.525900  1.0  0.1027
  C  C82  1  0.378200  0.328400  0.558800  1.0  -0.0173
  C  C83  1  0.337100  0.339000  0.607300  1.0  -0.0648
  C  C84  1  0.125400  0.641700  0.678800  1.0  0.7119
  C  C85  1  0.090600  0.628500  0.626500  1.0  -0.0094
  C  C86  1  0.176500  0.629900  0.588200  1.0  0.0032
  C  C87  1  0.145600  0.640200  0.537400  1.0  0.0224
  C  C88  1  0.020200  0.604200  0.525900  1.0  0.1021
  C  C89  1  0.950200  0.621800  0.558800  1.0  -0.0154
  C  C90  1  0.001900  0.662900  0.607300  1.0  -0.0615
  O  O91  1  0.881800  0.432300  0.198200  1.0  -0.6307
  O  O92  1  0.847100  0.587700  0.198900  1.0  -0.5194
  O  O93  1  0.567700  0.449500  0.198200  1.0  -0.6445
  O  O94  1  0.412300  0.259400  0.198900  1.0  -0.5212
  O  O95  1  0.550500  0.118200  0.198200  1.0  -0.6393
  O  O96  1  0.740600  0.152900  0.198900  1.0  -0.5176
  O  O97  1  0.881800  0.432300  0.301800  1.0  -0.6308
  O  O98  1  0.847100  0.587700  0.301100  1.0  -0.5191
  O  O99  1  0.567700  0.449500  0.301800  1.0  -0.6449
  O  O100  1  0.412300  0.259400  0.301100  1.0  -0.5209
  O  O101  1  0.550500  0.118200  0.301800  1.0  -0.6392
  O  O102  1  0.740600  0.152900  0.301100  1.0  -0.5181
  O  O103  1  0.432300  0.881800  0.801800  1.0  -0.6426
  O  O104  1  0.587700  0.847100  0.801100  1.0  -0.5175
  O  O105  1  0.449500  0.567700  0.801800  1.0  -0.6312
  O  O106  1  0.259400  0.412300  0.801100  1.0  -0.52
  O  O107  1  0.118200  0.550500  0.801800  1.0  -0.6391
  O  O108  1  0.152900  0.740600  0.801100  1.0  -0.5229
  O  O109  1  0.432300  0.881800  0.698200  1.0  -0.6422
  O  O110  1  0.587700  0.847100  0.698900  1.0  -0.5178
  O  O111  1  0.449500  0.567700  0.698200  1.0  -0.6312
  O  O112  1  0.259400  0.412300  0.698900  1.0  -0.5203
  O  O113  1  0.118200  0.550500  0.698200  1.0  -0.6386
  O  O114  1  0.152900  0.740600  0.698900  1.0  -0.5245
  O  O115  1  0.666667  0.333333  0.250000  1.0  -0.9824
  O  O116  1  0.333333  0.666667  0.750000  1.0  -0.9824
