# generated using pymatgen
data_Cr3C24O13
_symmetry_space_group_name_H-M   'P 1'
_cell_length_a   11.02820000
_cell_length_b   11.02820000
_cell_length_c   18.97170000
_cell_angle_alpha   90.00000000
_cell_angle_beta   90.00000000
_cell_angle_gamma   120.00000000
_symmetry_Int_Tables_number   1
_chemical_formula_structural   Cr3C24O13
_chemical_formula_sum   'Cr6 C48 O26'
_cell_volume   1998.23309425
_cell_formula_units_Z   2
loop_
 _symmetry_equiv_pos_site_id
 _symmetry_equiv_pos_as_xyz
  1  'x, y, z'
loop_
 _atom_site_type_symbol
 _atom_site_label
 _atom_site_symmetry_multiplicity
 _atom_site_fract_x
 _atom_site_fract_y
 _atom_site_fract_z
 _atom_site_occupancy
 _atom_site_charge
  Cr  Cr1  1  0.223600  0.762800  0.750000  1.0  1.279
  Cr  Cr2  1  0.237200  0.460800  0.750000  1.0  1.2784
  Cr  Cr3  1  0.539200  0.776400  0.750000  1.0  1.2786
  Cr  Cr4  1  0.762800  0.223600  0.250000  1.0  1.277
  Cr  Cr5  1  0.460800  0.237200  0.250000  1.0  1.2775
  Cr  Cr6  1  0.776400  0.539200  0.250000  1.0  1.2768
  C  C7  1  0.444400  0.919400  0.641600  1.0  0.6929
  C  C8  1  0.484100  0.985400  0.572800  1.0  0.0366
  C  C9  1  0.602600  0.999400  0.536500  1.0  0.0125
  C  C10  1  0.377100  0.986400  0.536300  1.0  0.0075
  C  C11  1  0.080600  0.525000  0.641600  1.0  0.6951
  C  C12  1  0.014600  0.498700  0.572800  1.0  0.0358
  C  C13  1  0.000600  0.603200  0.536500  1.0  0.0137
  C  C14  1  0.013600  0.390700  0.536300  1.0  0.0082
  C  C15  1  0.475000  0.555600  0.641600  1.0  0.6955
  C  C16  1  0.501300  0.515900  0.572800  1.0  0.034
  C  C17  1  0.396800  0.397400  0.536500  1.0  0.0139
  C  C18  1  0.609300  0.622900  0.536300  1.0  0.0081
  C  C19  1  0.444400  0.919400  0.858400  1.0  0.6919
  C  C20  1  0.484100  0.985400  0.927200  1.0  0.0369
  C  C21  1  0.602600  0.999400  0.963500  1.0  0.0139
  C  C22  1  0.377100  0.986400  0.963700  1.0  0.0069
  C  C23  1  0.080600  0.525000  0.858400  1.0  0.6947
  C  C24  1  0.014600  0.498700  0.927200  1.0  0.0355
  C  C25  1  0.000600  0.603200  0.963500  1.0  0.0158
  C  C26  1  0.013600  0.390700  0.963700  1.0  0.0103
  C  C27  1  0.475000  0.555600  0.858400  1.0  0.6941
  C  C28  1  0.501300  0.515900  0.927200  1.0  0.0345
  C  C29  1  0.396800  0.397400  0.963500  1.0  0.0153
  C  C30  1  0.609300  0.622900  0.963700  1.0  0.0083
  C  C31  1  0.919400  0.444400  0.358400  1.0  0.6938
  C  C32  1  0.985400  0.484100  0.427200  1.0  0.0345
  C  C33  1  0.999400  0.602600  0.463500  1.0  0.0168
  C  C34  1  0.986400  0.377100  0.463700  1.0  0.0067
  C  C35  1  0.525000  0.080600  0.358400  1.0  0.6934
  C  C36  1  0.498700  0.014600  0.427200  1.0  0.0373
  C  C37  1  0.603200  0.000600  0.463500  1.0  0.0141
  C  C38  1  0.390700  0.013600  0.463700  1.0  0.005
  C  C39  1  0.555600  0.475000  0.358400  1.0  0.6936
  C  C40  1  0.515900  0.501300  0.427200  1.0  0.037
  C  C41  1  0.397400  0.396800  0.463500  1.0  0.0152
  C  C42  1  0.622900  0.609300  0.463700  1.0  0.0099
  C  C43  1  0.919400  0.444400  0.141600  1.0  0.6952
  C  C44  1  0.985400  0.484100  0.072800  1.0  0.0333
  C  C45  1  0.999400  0.602600  0.036500  1.0  0.015
  C  C46  1  0.986400  0.377100  0.036300  1.0  0.009
  C  C47  1  0.525000  0.080600  0.141600  1.0  0.694
  C  C48  1  0.498700  0.014600  0.072800  1.0  0.0369
  C  C49  1  0.603200  0.000600  0.036500  1.0  0.0132
  C  C50  1  0.390700  0.013600  0.036300  1.0  0.0052
  C  C51  1  0.555600  0.475000  0.141600  1.0  0.695
  C  C52  1  0.515900  0.501300  0.072800  1.0  0.0369
  C  C53  1  0.397400  0.396800  0.036500  1.0  0.0142
  C  C54  1  0.622900  0.609300  0.036300  1.0  0.0099
  O  O55  1  0.330000  0.904000  0.672000  1.0  -0.5439
  O  O56  1  0.522600  0.889500  0.677700  1.0  -0.6681
  O  O57  1  0.096000  0.426000  0.672000  1.0  -0.5442
  O  O58  1  0.110500  0.633100  0.677700  1.0  -0.6709
  O  O59  1  0.574000  0.670000  0.672000  1.0  -0.5413
  O  O60  1  0.366900  0.477400  0.677700  1.0  -0.6723
  O  O61  1  0.330000  0.904000  0.828000  1.0  -0.5434
  O  O62  1  0.522600  0.889500  0.822300  1.0  -0.6688
  O  O63  1  0.096000  0.426000  0.828000  1.0  -0.5438
  O  O64  1  0.110500  0.633100  0.822300  1.0  -0.6712
  O  O65  1  0.574000  0.670000  0.828000  1.0  -0.5403
  O  O66  1  0.366900  0.477400  0.822300  1.0  -0.6719
  O  O67  1  0.904000  0.330000  0.328000  1.0  -0.5425
  O  O68  1  0.889500  0.522600  0.322300  1.0  -0.6759
  O  O69  1  0.426000  0.096000  0.328000  1.0  -0.5431
  O  O70  1  0.633100  0.110500  0.322300  1.0  -0.6696
  O  O71  1  0.670000  0.574000  0.328000  1.0  -0.5438
  O  O72  1  0.477400  0.366900  0.322300  1.0  -0.6688
  O  O73  1  0.904000  0.330000  0.172000  1.0  -0.5433
  O  O74  1  0.889500  0.522600  0.177700  1.0  -0.6768
  O  O75  1  0.426000  0.096000  0.172000  1.0  -0.5435
  O  O76  1  0.633100  0.110500  0.177700  1.0  -0.6703
  O  O77  1  0.670000  0.574000  0.172000  1.0  -0.5444
  O  O78  1  0.477400  0.366900  0.177700  1.0  -0.6689
  O  O79  1  0.333333  0.666667  0.750000  1.0  -1.0617
  O  O80  1  0.666667  0.333333  0.250000  1.0  -1.0617
