# generated using pymatgen
data_Fe3C36O13
_symmetry_space_group_name_H-M   'P 1'
_cell_length_a   10.17510000
_cell_length_b   10.17510000
_cell_length_c   23.77220000
_cell_angle_alpha   90.00000000
_cell_angle_beta   90.00000000
_cell_angle_gamma   120.00000000
_symmetry_Int_Tables_number   1
_chemical_formula_structural   Fe3C36O13
_chemical_formula_sum   'Fe6 C72 O26'
_cell_volume   2131.46094462
_cell_formula_units_Z   2
loop_
 _symmetry_equiv_pos_site_id
 _symmetry_equiv_pos_as_xyz
  1  'x, y, z'
loop_
 _atom_site_type_symbol
 _atom_site_label
 _atom_site_symmetry_multiplicity
 _atom_site_fract_x
 _atom_site_fract_y
 _atom_site_fract_z
 _atom_site_occupancy
 _atom_site_charge
  Fe  Fe1  1  0.727100  0.163900  0.250000  1.0  1.2113
  Fe  Fe2  1  0.836100  0.563200  0.250000  1.0  1.2129
  Fe  Fe3  1  0.436800  0.272900  0.250000  1.0  1.2105
  Fe  Fe4  1  0.163900  0.727100  0.750000  1.0  1.2105
  Fe  Fe5  1  0.563200  0.836100  0.750000  1.0  1.2144
  Fe  Fe6  1  0.272900  0.436800  0.750000  1.0  1.2122
  C  C7  1  0.918700  0.381700  0.103700  1.0  0.0612
  C  C8  1  0.065200  0.434400  0.102300  1.0  0.0803
  C  C9  1  0.135600  0.522900  0.058200  1.0  0.0912
  C  C10  1  0.076200  0.460000  0.001700  1.0  0.0456
  C  C11  1  0.846900  0.366000  0.049000  1.0  0.0263
  C  C12  1  0.860300  0.376200  0.166200  1.0  0.5445
  C  C13  1  0.618300  0.537000  0.103700  1.0  0.0618
  C  C14  1  0.565600  0.630800  0.102300  1.0  0.077
  C  C15  1  0.477100  0.612700  0.058200  1.0  0.0993
  C  C16  1  0.540000  0.616200  0.001700  1.0  0.0437
  C  C17  1  0.634000  0.480900  0.049000  1.0  0.0243
  C  C18  1  0.623800  0.484100  0.166200  1.0  0.5436
  C  C19  1  0.463000  0.081300  0.103700  1.0  0.0623
  C  C20  1  0.369200  0.934800  0.102300  1.0  0.0753
  C  C21  1  0.387300  0.864400  0.058200  1.0  0.0961
  C  C22  1  0.383800  0.923800  0.001700  1.0  0.0449
  C  C23  1  0.519100  0.153100  0.049000  1.0  0.0244
  C  C24  1  0.515900  0.139700  0.166200  1.0  0.5431
  C  C25  1  0.918700  0.381700  0.396300  1.0  0.0615
  C  C26  1  0.065200  0.434400  0.397700  1.0  0.08
  C  C27  1  0.135600  0.522900  0.441800  1.0  0.0911
  C  C28  1  0.076200  0.460000  0.498300  1.0  0.0458
  C  C29  1  0.846900  0.366000  0.451000  1.0  0.0259
  C  C30  1  0.860300  0.376200  0.333800  1.0  0.5439
  C  C31  1  0.618300  0.537000  0.396300  1.0  0.0619
  C  C32  1  0.565600  0.630800  0.397700  1.0  0.0759
  C  C33  1  0.477100  0.612700  0.441800  1.0  0.0988
  C  C34  1  0.540000  0.616200  0.498300  1.0  0.0438
  C  C35  1  0.634000  0.480900  0.451000  1.0  0.0241
  C  C36  1  0.623800  0.484100  0.333800  1.0  0.5432
  C  C37  1  0.463000  0.081300  0.396300  1.0  0.0626
  C  C38  1  0.369200  0.934800  0.397700  1.0  0.077
  C  C39  1  0.387300  0.864400  0.441800  1.0  0.0953
  C  C40  1  0.383800  0.923800  0.498300  1.0  0.0448
  C  C41  1  0.519100  0.153100  0.451000  1.0  0.024
  C  C42  1  0.515900  0.139700  0.333800  1.0  0.543
  C  C43  1  0.381700  0.918700  0.896300  1.0  0.0626
  C  C44  1  0.434400  0.065200  0.897700  1.0  0.0777
  C  C45  1  0.522900  0.135600  0.941800  1.0  0.0931
  C  C46  1  0.460000  0.076200  0.998300  1.0  0.0437
  C  C47  1  0.366000  0.846900  0.951000  1.0  0.0233
  C  C48  1  0.376200  0.860300  0.833800  1.0  0.5433
  C  C49  1  0.537000  0.618300  0.896300  1.0  0.0617
  C  C50  1  0.630800  0.565600  0.897700  1.0  0.0802
  C  C51  1  0.612700  0.477100  0.941800  1.0  0.0921
  C  C52  1  0.616200  0.540000  0.998300  1.0  0.0459
  C  C53  1  0.480900  0.634000  0.951000  1.0  0.0259
  C  C54  1  0.484100  0.623800  0.833800  1.0  0.5443
  C  C55  1  0.081300  0.463000  0.896300  1.0  0.0621
  C  C56  1  0.934800  0.369200  0.897700  1.0  0.0759
  C  C57  1  0.864400  0.387300  0.941800  1.0  0.0935
  C  C58  1  0.923800  0.383800  0.998300  1.0  0.0444
  C  C59  1  0.153100  0.519100  0.951000  1.0  0.0246
  C  C60  1  0.139700  0.515900  0.833800  1.0  0.5433
  C  C61  1  0.381700  0.918700  0.603700  1.0  0.0624
  C  C62  1  0.434400  0.065200  0.602300  1.0  0.0781
  C  C63  1  0.522900  0.135600  0.558200  1.0  0.0929
  C  C64  1  0.460000  0.076200  0.501700  1.0  0.0437
  C  C65  1  0.366000  0.846900  0.549000  1.0  0.0235
  C  C66  1  0.376200  0.860300  0.666200  1.0  0.5434
  C  C67  1  0.537000  0.618300  0.603700  1.0  0.0613
  C  C68  1  0.630800  0.565600  0.602300  1.0  0.0803
  C  C69  1  0.612700  0.477100  0.558200  1.0  0.0924
  C  C70  1  0.616200  0.540000  0.501700  1.0  0.0457
  C  C71  1  0.480900  0.634000  0.549000  1.0  0.0263
  C  C72  1  0.484100  0.623800  0.666200  1.0  0.5448
  C  C73  1  0.081300  0.463000  0.603700  1.0  0.0617
  C  C74  1  0.934800  0.369200  0.602300  1.0  0.0747
  C  C75  1  0.864400  0.387300  0.558200  1.0  0.0942
  C  C76  1  0.923800  0.383800  0.501700  1.0  0.0443
  C  C77  1  0.153100  0.519100  0.549000  1.0  0.0248
  C  C78  1  0.139700  0.515900  0.666200  1.0  0.5436
  O  O79  1  0.875500  0.272700  0.189400  1.0  -0.6562
  O  O80  1  0.931700  0.504600  0.191600  1.0  -0.6467
  O  O81  1  0.727300  0.602800  0.189400  1.0  -0.6538
  O  O82  1  0.495400  0.427100  0.191600  1.0  -0.6398
  O  O83  1  0.397200  0.124500  0.189400  1.0  -0.6557
  O  O84  1  0.572900  0.068300  0.191600  1.0  -0.644
  O  O85  1  0.875500  0.272700  0.310600  1.0  -0.6562
  O  O86  1  0.931700  0.504600  0.308400  1.0  -0.647
  O  O87  1  0.727300  0.602800  0.310600  1.0  -0.6545
  O  O88  1  0.495400  0.427100  0.308400  1.0  -0.6401
  O  O89  1  0.397200  0.124500  0.310600  1.0  -0.6555
  O  O90  1  0.572900  0.068300  0.308400  1.0  -0.6439
  O  O91  1  0.272700  0.875500  0.810600  1.0  -0.656
  O  O92  1  0.504600  0.931700  0.808400  1.0  -0.6485
  O  O93  1  0.602800  0.727300  0.810600  1.0  -0.6562
  O  O94  1  0.427100  0.495400  0.808400  1.0  -0.645
  O  O95  1  0.124500  0.397200  0.810600  1.0  -0.6559
  O  O96  1  0.068300  0.572900  0.808400  1.0  -0.6391
  O  O97  1  0.272700  0.875500  0.689400  1.0  -0.6558
  O  O98  1  0.504600  0.931700  0.691600  1.0  -0.6481
  O  O99  1  0.602800  0.727300  0.689400  1.0  -0.6555
  O  O100  1  0.427100  0.495400  0.691600  1.0  -0.6452
  O  O101  1  0.124500  0.397200  0.689400  1.0  -0.6557
  O  O102  1  0.068300  0.572900  0.691600  1.0  -0.6389
  O  O103  1  0.666667  0.333333  0.250000  1.0  -0.9207
  O  O104  1  0.333333  0.666667  0.750000  1.0  -0.9207
