# generated using pymatgen
data_CdC4
_symmetry_space_group_name_H-M   'P 1'
_cell_length_a   12.24300000
_cell_length_b   12.24300000
_cell_length_c   12.24300000
_cell_angle_alpha   90.00000000
_cell_angle_beta   90.00000000
_cell_angle_gamma   90.00000000
_symmetry_Int_Tables_number   1
_chemical_formula_structural   CdC4
_chemical_formula_sum   'Cd8 C32'
_cell_volume   1835.11611291
_cell_formula_units_Z   8
loop_
 _symmetry_equiv_pos_site_id
 _symmetry_equiv_pos_as_xyz
  1  'x, y, z'
loop_
 _atom_site_type_symbol
 _atom_site_label
 _atom_site_symmetry_multiplicity
 _atom_site_fract_x
 _atom_site_fract_y
 _atom_site_fract_z
 _atom_site_occupancy
 _atom_site_charge
  Cd  Cd1  1  0.125000  0.125000  0.125000  1.0  0.6147
  Cd  Cd2  1  0.125000  0.625000  0.625000  1.0  0.6147
  Cd  Cd3  1  0.625000  0.125000  0.625000  1.0  0.6147
  Cd  Cd4  1  0.625000  0.625000  0.125000  1.0  0.6147
  Cd  Cd5  1  0.875000  0.375000  0.375000  1.0  0.6147
  Cd  Cd6  1  0.875000  0.875000  0.875000  1.0  0.6147
  Cd  Cd7  1  0.375000  0.375000  0.875000  1.0  0.6147
  Cd  Cd8  1  0.375000  0.875000  0.375000  1.0  0.6147
  C  C9  1  0.027200  0.027200  0.027200  1.0  -0.1546
  C  C10  1  0.027200  0.527200  0.527200  1.0  -0.1546
  C  C11  1  0.527200  0.027200  0.527200  1.0  -0.1546
  C  C12  1  0.527200  0.527200  0.027200  1.0  -0.1546
  C  C13  1  0.722800  0.222800  0.527200  1.0  -0.1529
  C  C14  1  0.722800  0.722800  0.027200  1.0  -0.1529
  C  C15  1  0.222800  0.527200  0.722800  1.0  -0.1528
  C  C16  1  0.222800  0.027200  0.222800  1.0  -0.1528
  C  C17  1  0.722800  0.027200  0.722800  1.0  -0.1528
  C  C18  1  0.527200  0.722800  0.222800  1.0  -0.1543
  C  C19  1  0.027200  0.722800  0.722800  1.0  -0.1543
  C  C20  1  0.777200  0.277200  0.472800  1.0  -0.1549
  C  C21  1  0.777200  0.777200  0.972800  1.0  -0.1549
  C  C22  1  0.972800  0.972800  0.972800  1.0  -0.1526
  C  C23  1  0.972800  0.472800  0.472800  1.0  -0.1526
  C  C24  1  0.472800  0.972800  0.472800  1.0  -0.1526
  C  C25  1  0.472800  0.472800  0.972800  1.0  -0.1526
  C  C26  1  0.277200  0.472800  0.777200  1.0  -0.1542
  C  C27  1  0.277200  0.972800  0.277200  1.0  -0.1542
  C  C28  1  0.777200  0.972800  0.777200  1.0  -0.1542
  C  C29  1  0.472800  0.777200  0.277200  1.0  -0.1531
  C  C30  1  0.972800  0.777200  0.777200  1.0  -0.1531
  C  C31  1  0.277200  0.777200  0.472800  1.0  -0.1549
  C  C32  1  0.277200  0.277200  0.972800  1.0  -0.1549
  C  C33  1  0.777200  0.472800  0.277200  1.0  -0.1542
  C  C34  1  0.472800  0.277200  0.777200  1.0  -0.1531
  C  C35  1  0.972800  0.277200  0.277200  1.0  -0.1531
  C  C36  1  0.222800  0.722800  0.527200  1.0  -0.1529
  C  C37  1  0.222800  0.222800  0.027200  1.0  -0.1529
  C  C38  1  0.722800  0.527200  0.222800  1.0  -0.1528
  C  C39  1  0.527200  0.222800  0.722800  1.0  -0.1543
  C  C40  1  0.027200  0.222800  0.222800  1.0  -0.1543
