# generated using pymatgen
data_H6PdC8(N2O)2
_symmetry_space_group_name_H-M   'P 1'
_cell_length_a   16.27920000
_cell_length_b   16.27920000
_cell_length_c   16.27920000
_cell_angle_alpha   90.00000000
_cell_angle_beta   90.00000000
_cell_angle_gamma   90.00000000
_symmetry_Int_Tables_number   1
_chemical_formula_structural   H6PdC8(N2O)2
_chemical_formula_sum   'H72 Pd12 C96 N48 O24'
_cell_volume   4314.18909110
_cell_formula_units_Z   12
loop_
 _symmetry_equiv_pos_site_id
 _symmetry_equiv_pos_as_xyz
  1  'x, y, z'
loop_
 _atom_site_type_symbol
 _atom_site_label
 _atom_site_symmetry_multiplicity
 _atom_site_fract_x
 _atom_site_fract_y
 _atom_site_fract_z
 _atom_site_occupancy
 _atom_site_charge
  H  H1  1  0.419400  0.245700  0.592800  1.0  0.1057
  H  H2  1  0.080600  0.254300  0.592800  1.0  0.1059
  H  H3  1  0.080600  0.245700  0.907200  1.0  0.1058
  H  H4  1  0.419400  0.254300  0.907200  1.0  0.1055
  H  H5  1  0.592800  0.419400  0.245700  1.0  0.1065
  H  H6  1  0.592800  0.080600  0.254300  1.0  0.107
  H  H7  1  0.907200  0.080600  0.245700  1.0  0.1064
  H  H8  1  0.907200  0.419400  0.254300  1.0  0.1061
  H  H9  1  0.245700  0.592800  0.419400  1.0  0.1055
  H  H10  1  0.254300  0.592800  0.080600  1.0  0.1054
  H  H11  1  0.245700  0.907200  0.080600  1.0  0.1054
  H  H12  1  0.254300  0.907200  0.419400  1.0  0.1056
  H  H13  1  0.745700  0.919400  0.407200  1.0  0.1051
  H  H14  1  0.754300  0.580600  0.407200  1.0  0.1058
  H  H15  1  0.745700  0.580600  0.092800  1.0  0.1053
  H  H16  1  0.754300  0.919400  0.092800  1.0  0.1054
  H  H17  1  0.919400  0.092800  0.754300  1.0  0.1069
  H  H18  1  0.580600  0.092800  0.745700  1.0  0.1066
  H  H19  1  0.580600  0.407200  0.754300  1.0  0.1067
  H  H20  1  0.919400  0.407200  0.745700  1.0  0.1064
  H  H21  1  0.092800  0.745700  0.580600  1.0  0.1052
  H  H22  1  0.092800  0.754300  0.919400  1.0  0.1061
  H  H23  1  0.407200  0.745700  0.919400  1.0  0.1055
  H  H24  1  0.407200  0.754300  0.580600  1.0  0.1056
  H  H25  1  0.580600  0.754300  0.407200  1.0  0.1056
  H  H26  1  0.919400  0.745700  0.407200  1.0  0.1058
  H  H27  1  0.919400  0.754300  0.092800  1.0  0.1057
  H  H28  1  0.580600  0.745700  0.092800  1.0  0.1056
  H  H29  1  0.407200  0.580600  0.754300  1.0  0.1064
  H  H30  1  0.407200  0.919400  0.745700  1.0  0.1062
  H  H31  1  0.092800  0.919400  0.754300  1.0  0.1067
  H  H32  1  0.092800  0.580600  0.745700  1.0  0.1066
  H  H33  1  0.754300  0.407200  0.580600  1.0  0.1055
  H  H34  1  0.745700  0.407200  0.919400  1.0  0.1055
  H  H35  1  0.754300  0.092800  0.919400  1.0  0.1058
  H  H36  1  0.745700  0.092800  0.580600  1.0  0.1051
  H  H37  1  0.254300  0.080600  0.592800  1.0  0.1055
  H  H38  1  0.245700  0.419400  0.592800  1.0  0.1051
  H  H39  1  0.254300  0.419400  0.907200  1.0  0.1053
  H  H40  1  0.245700  0.080600  0.907200  1.0  0.1056
  H  H41  1  0.080600  0.907200  0.245700  1.0  0.1066
  H  H42  1  0.419400  0.907200  0.254300  1.0  0.1065
  H  H43  1  0.419400  0.592800  0.245700  1.0  0.1067
  H  H44  1  0.080600  0.592800  0.254300  1.0  0.1068
  H  H45  1  0.907200  0.254300  0.419400  1.0  0.1054
  H  H46  1  0.907200  0.245700  0.080600  1.0  0.1052
  H  H47  1  0.592800  0.254300  0.080600  1.0  0.1058
  H  H48  1  0.592800  0.245700  0.419400  1.0  0.1058
  H  H49  1  0.311160  0.311160  0.528560  1.0  0.1399
  H  H50  1  0.188840  0.188840  0.528560  1.0  0.1401
  H  H51  1  0.188840  0.311160  0.971440  1.0  0.139
  H  H52  1  0.311160  0.188840  0.971440  1.0  0.139
  H  H53  1  0.528560  0.311160  0.311160  1.0  0.1406
  H  H54  1  0.528560  0.188840  0.188840  1.0  0.1402
  H  H55  1  0.971440  0.188840  0.311160  1.0  0.1401
  H  H56  1  0.971440  0.311160  0.188840  1.0  0.1399
  H  H57  1  0.311160  0.528560  0.311160  1.0  0.1405
  H  H58  1  0.188840  0.528560  0.188840  1.0  0.1405
  H  H59  1  0.311160  0.971440  0.188840  1.0  0.1407
  H  H60  1  0.188840  0.971440  0.311160  1.0  0.1407
  H  H61  1  0.811160  0.811160  0.471440  1.0  0.1391
  H  H62  1  0.688840  0.688840  0.471440  1.0  0.1391
  H  H63  1  0.811160  0.688840  0.028560  1.0  0.1399
  H  H64  1  0.688840  0.811160  0.028560  1.0  0.1399
  H  H65  1  0.811160  0.028560  0.688840  1.0  0.1405
  H  H66  1  0.688840  0.028560  0.811160  1.0  0.1405
  H  H67  1  0.688840  0.471440  0.688840  1.0  0.1407
  H  H68  1  0.811160  0.471440  0.811160  1.0  0.1407
  H  H69  1  0.028560  0.811160  0.688840  1.0  0.1404
  H  H70  1  0.028560  0.688840  0.811160  1.0  0.1403
  H  H71  1  0.471440  0.811160  0.811160  1.0  0.14
  H  H72  1  0.471440  0.688840  0.688840  1.0  0.1399
  Pd  Pd73  1  0.500000  0.250000  0.750000  1.0  0.5065
  Pd  Pd74  1  0.000000  0.250000  0.750000  1.0  0.5065
  Pd  Pd75  1  0.750000  0.500000  0.250000  1.0  0.5065
  Pd  Pd76  1  0.750000  0.000000  0.250000  1.0  0.5065
  Pd  Pd77  1  0.250000  0.750000  0.500000  1.0  0.5065
  Pd  Pd78  1  0.250000  0.750000  0.000000  1.0  0.5065
  Pd  Pd79  1  0.500000  0.750000  0.250000  1.0  0.5065
  Pd  Pd80  1  0.000000  0.750000  0.250000  1.0  0.5065
  Pd  Pd81  1  0.250000  0.500000  0.750000  1.0  0.5065
  Pd  Pd82  1  0.250000  0.000000  0.750000  1.0  0.5065
  Pd  Pd83  1  0.750000  0.250000  0.500000  1.0  0.5065
  Pd  Pd84  1  0.750000  0.250000  0.000000  1.0  0.5065
  C  C85  1  0.392530  0.290330  0.619110  1.0  0.207
  C  C86  1  0.107470  0.209670  0.619110  1.0  0.2075
  C  C87  1  0.107470  0.290330  0.880890  1.0  0.2065
  C  C88  1  0.392530  0.209670  0.880890  1.0  0.2078
  C  C89  1  0.619110  0.392530  0.290330  1.0  0.2107
  C  C90  1  0.619110  0.107470  0.209670  1.0  0.211
  C  C91  1  0.880890  0.107470  0.290330  1.0  0.2094
  C  C92  1  0.880890  0.392530  0.209670  1.0  0.21
  C  C93  1  0.290330  0.619110  0.392530  1.0  0.2094
  C  C94  1  0.209670  0.619110  0.107470  1.0  0.2084
  C  C95  1  0.290330  0.880890  0.107470  1.0  0.2081
  C  C96  1  0.209670  0.880890  0.392530  1.0  0.2077
  C  C97  1  0.790330  0.892530  0.380890  1.0  0.2082
  C  C98  1  0.709670  0.607470  0.380890  1.0  0.2091
  C  C99  1  0.790330  0.607470  0.119110  1.0  0.209
  C  C100  1  0.709670  0.892530  0.119110  1.0  0.2087
  C  C101  1  0.892530  0.119110  0.709670  1.0  0.2083
  C  C102  1  0.607470  0.119110  0.790330  1.0  0.207
  C  C103  1  0.607470  0.380890  0.709670  1.0  0.2062
  C  C104  1  0.892530  0.380890  0.790330  1.0  0.2068
  C  C105  1  0.119110  0.790330  0.607470  1.0  0.2105
  C  C106  1  0.119110  0.709670  0.892530  1.0  0.2104
  C  C107  1  0.380890  0.790330  0.892530  1.0  0.2098
  C  C108  1  0.380890  0.709670  0.607470  1.0  0.2103
  C  C109  1  0.607470  0.709670  0.380890  1.0  0.2012
  C  C110  1  0.892530  0.790330  0.380890  1.0  0.2025
  C  C111  1  0.892530  0.709670  0.119110  1.0  0.2023
  C  C112  1  0.607470  0.790330  0.119110  1.0  0.2021
  C  C113  1  0.380890  0.607470  0.709670  1.0  0.205
  C  C114  1  0.380890  0.892530  0.790330  1.0  0.2049
  C  C115  1  0.119110  0.892530  0.709670  1.0  0.2059
  C  C116  1  0.119110  0.607470  0.790330  1.0  0.2053
  C  C117  1  0.709670  0.380890  0.607470  1.0  0.2027
  C  C118  1  0.790330  0.380890  0.892530  1.0  0.2026
  C  C119  1  0.709670  0.119110  0.892530  1.0  0.2039
  C  C120  1  0.790330  0.119110  0.607470  1.0  0.2038
  C  C121  1  0.209670  0.107470  0.619110  1.0  0.2033
  C  C122  1  0.290330  0.392530  0.619110  1.0  0.2041
  C  C123  1  0.209670  0.392530  0.880890  1.0  0.204
  C  C124  1  0.290330  0.107470  0.880890  1.0  0.2036
  C  C125  1  0.107470  0.880890  0.290330  1.0  0.2011
  C  C126  1  0.392530  0.880890  0.209670  1.0  0.2017
  C  C127  1  0.392530  0.619110  0.290330  1.0  0.2023
  C  C128  1  0.107470  0.619110  0.209670  1.0  0.2028
  C  C129  1  0.880890  0.209670  0.392530  1.0  0.205
  C  C130  1  0.880890  0.290330  0.107470  1.0  0.2044
  C  C131  1  0.619110  0.209670  0.107470  1.0  0.2057
  C  C132  1  0.619110  0.290330  0.392530  1.0  0.2057
  C  C133  1  0.379440  0.379440  0.732270  1.0  0.6484
  C  C134  1  0.328840  0.328840  0.581290  1.0  -0.3366
  C  C135  1  0.120560  0.120560  0.732270  1.0  0.6479
  C  C136  1  0.171160  0.171160  0.581290  1.0  -0.3346
  C  C137  1  0.120560  0.379440  0.767730  1.0  0.6487
  C  C138  1  0.171160  0.328840  0.918710  1.0  -0.3346
  C  C139  1  0.379440  0.120560  0.767730  1.0  0.6483
  C  C140  1  0.328840  0.171160  0.918710  1.0  -0.3379
  C  C141  1  0.732270  0.379440  0.379440  1.0  0.6464
  C  C142  1  0.581290  0.328840  0.328840  1.0  -0.3369
  C  C143  1  0.732270  0.120560  0.120560  1.0  0.6463
  C  C144  1  0.581290  0.171160  0.171160  1.0  -0.3376
  C  C145  1  0.767730  0.120560  0.379440  1.0  0.6473
  C  C146  1  0.918710  0.171160  0.328840  1.0  -0.3357
  C  C147  1  0.767730  0.379440  0.120560  1.0  0.6475
  C  C148  1  0.918710  0.328840  0.171160  1.0  -0.3355
  C  C149  1  0.379440  0.732270  0.379440  1.0  0.647
  C  C150  1  0.328840  0.581290  0.328840  1.0  -0.3377
  C  C151  1  0.120560  0.732270  0.120560  1.0  0.6467
  C  C152  1  0.171160  0.581290  0.171160  1.0  -0.3357
  C  C153  1  0.379440  0.767730  0.120560  1.0  0.647
  C  C154  1  0.328840  0.918710  0.171160  1.0  -0.3377
  C  C155  1  0.120560  0.767730  0.379440  1.0  0.6467
  C  C156  1  0.171160  0.918710  0.328840  1.0  -0.3346
  C  C157  1  0.879440  0.879440  0.267730  1.0  0.6489
  C  C158  1  0.828840  0.828840  0.418710  1.0  -0.3376
  C  C159  1  0.620560  0.620560  0.267730  1.0  0.6478
  C  C160  1  0.671160  0.671160  0.418710  1.0  -0.3349
  C  C161  1  0.879440  0.620560  0.232270  1.0  0.6485
  C  C162  1  0.828840  0.671160  0.081290  1.0  -0.3368
  C  C163  1  0.620560  0.879440  0.232270  1.0  0.6481
  C  C164  1  0.671160  0.828840  0.081290  1.0  -0.3345
  C  C165  1  0.879440  0.232270  0.620560  1.0  0.6472
  C  C166  1  0.828840  0.081290  0.671160  1.0  -0.3381
  C  C167  1  0.620560  0.232270  0.879440  1.0  0.6465
  C  C168  1  0.671160  0.081290  0.828840  1.0  -0.3352
  C  C169  1  0.620560  0.267730  0.620560  1.0  0.6464
  C  C170  1  0.671160  0.418710  0.671160  1.0  -0.3347
  C  C171  1  0.879440  0.267730  0.879440  1.0  0.6473
  C  C172  1  0.828840  0.418710  0.828840  1.0  -0.3376
  C  C173  1  0.232270  0.879440  0.620560  1.0  0.6467
  C  C174  1  0.081290  0.828840  0.671160  1.0  -0.3372
  C  C175  1  0.232270  0.620560  0.879440  1.0  0.6465
  C  C176  1  0.081290  0.671160  0.828840  1.0  -0.3373
  C  C177  1  0.267730  0.879440  0.879440  1.0  0.6472
  C  C178  1  0.418710  0.828840  0.828840  1.0  -0.3357
  C  C179  1  0.267730  0.620560  0.620560  1.0  0.6471
  C  C180  1  0.418710  0.671160  0.671160  1.0  -0.3355
  N  N181  1  0.418090  0.315610  0.694450  1.0  -0.368
  N  N182  1  0.081910  0.184390  0.694450  1.0  -0.3668
  N  N183  1  0.081910  0.315610  0.805550  1.0  -0.3672
  N  N184  1  0.418090  0.184390  0.805550  1.0  -0.3682
  N  N185  1  0.694450  0.418090  0.315610  1.0  -0.3671
  N  N186  1  0.694450  0.081910  0.184390  1.0  -0.3671
  N  N187  1  0.805550  0.081910  0.315610  1.0  -0.3675
  N  N188  1  0.805550  0.418090  0.184390  1.0  -0.3673
  N  N189  1  0.315610  0.694450  0.418090  1.0  -0.3682
  N  N190  1  0.184390  0.694450  0.081910  1.0  -0.3682
  N  N191  1  0.315610  0.805550  0.081910  1.0  -0.3686
  N  N192  1  0.184390  0.805550  0.418090  1.0  -0.3682
  N  N193  1  0.815610  0.918090  0.305550  1.0  -0.3685
  N  N194  1  0.684390  0.581910  0.305550  1.0  -0.3688
  N  N195  1  0.815610  0.581910  0.194450  1.0  -0.3683
  N  N196  1  0.684390  0.918090  0.194450  1.0  -0.3685
  N  N197  1  0.918090  0.194450  0.684390  1.0  -0.3678
  N  N198  1  0.581910  0.194450  0.815610  1.0  -0.367
  N  N199  1  0.581910  0.305550  0.684390  1.0  -0.3671
  N  N200  1  0.918090  0.305550  0.815610  1.0  -0.3678
  N  N201  1  0.194450  0.815610  0.581910  1.0  -0.3675
  N  N202  1  0.194450  0.684390  0.918090  1.0  -0.3662
  N  N203  1  0.305550  0.815610  0.918090  1.0  -0.3669
  N  N204  1  0.305550  0.684390  0.581910  1.0  -0.3676
  N  N205  1  0.581910  0.684390  0.305550  1.0  -0.3672
  N  N206  1  0.918090  0.815610  0.305550  1.0  -0.3682
  N  N207  1  0.918090  0.684390  0.194450  1.0  -0.3678
  N  N208  1  0.581910  0.815610  0.194450  1.0  -0.3671
  N  N209  1  0.305550  0.581910  0.684390  1.0  -0.3675
  N  N210  1  0.305550  0.918090  0.815610  1.0  -0.3674
  N  N211  1  0.194450  0.918090  0.684390  1.0  -0.3669
  N  N212  1  0.194450  0.581910  0.815610  1.0  -0.3671
  N  N213  1  0.684390  0.305550  0.581910  1.0  -0.3688
  N  N214  1  0.815610  0.305550  0.918090  1.0  -0.3677
  N  N215  1  0.684390  0.194450  0.918090  1.0  -0.368
  N  N216  1  0.815610  0.194450  0.581910  1.0  -0.3686
  N  N217  1  0.184390  0.081910  0.694450  1.0  -0.3682
  N  N218  1  0.315610  0.418090  0.694450  1.0  -0.3682
  N  N219  1  0.184390  0.418090  0.805550  1.0  -0.3687
  N  N220  1  0.315610  0.081910  0.805550  1.0  -0.3688
  N  N221  1  0.081910  0.805550  0.315610  1.0  -0.3669
  N  N222  1  0.418090  0.805550  0.184390  1.0  -0.3679
  N  N223  1  0.418090  0.694450  0.315610  1.0  -0.368
  N  N224  1  0.081910  0.694450  0.184390  1.0  -0.367
  N  N225  1  0.805550  0.184390  0.418090  1.0  -0.3671
  N  N226  1  0.805550  0.315610  0.081910  1.0  -0.3676
  N  N227  1  0.694450  0.184390  0.081910  1.0  -0.3671
  N  N228  1  0.694450  0.315610  0.418090  1.0  -0.3665
  O  O229  1  0.402700  0.402700  0.801650  1.0  -0.5947
  O  O230  1  0.097300  0.097300  0.801650  1.0  -0.5949
  O  O231  1  0.097300  0.402700  0.698350  1.0  -0.5956
  O  O232  1  0.402700  0.097300  0.698350  1.0  -0.5959
  O  O233  1  0.801650  0.402700  0.402700  1.0  -0.5943
  O  O234  1  0.801650  0.097300  0.097300  1.0  -0.5942
  O  O235  1  0.698350  0.097300  0.402700  1.0  -0.5928
  O  O236  1  0.698350  0.402700  0.097300  1.0  -0.5928
  O  O237  1  0.402700  0.801650  0.402700  1.0  -0.5904
  O  O238  1  0.097300  0.801650  0.097300  1.0  -0.5904
  O  O239  1  0.402700  0.698350  0.097300  1.0  -0.5908
  O  O240  1  0.097300  0.698350  0.402700  1.0  -0.5894
  O  O241  1  0.902700  0.902700  0.198350  1.0  -0.5953
  O  O242  1  0.597300  0.597300  0.198350  1.0  -0.5963
  O  O243  1  0.902700  0.597300  0.301650  1.0  -0.5947
  O  O244  1  0.597300  0.902700  0.301650  1.0  -0.5952
  O  O245  1  0.902700  0.301650  0.597300  1.0  -0.5902
  O  O246  1  0.597300  0.301650  0.902700  1.0  -0.5908
  O  O247  1  0.597300  0.198350  0.597300  1.0  -0.5902
  O  O248  1  0.902700  0.198350  0.902700  1.0  -0.5905
  O  O249  1  0.301650  0.902700  0.597300  1.0  -0.5934
  O  O250  1  0.301650  0.597300  0.902700  1.0  -0.5946
  O  O251  1  0.198350  0.902700  0.902700  1.0  -0.593
  O  O252  1  0.198350  0.597300  0.597300  1.0  -0.5935
