# generated using pymatgen
data_Mn3H61C64(N2O3)4
_symmetry_space_group_name_H-M   'P 1'
_cell_length_a   9.77700000
_cell_length_b   9.77700000
_cell_length_c   33.61100000
_cell_angle_alpha   90.00000000
_cell_angle_beta   90.00000000
_cell_angle_gamma   90.34100000
_symmetry_Int_Tables_number   1
_chemical_formula_structural   Mn3H61C64(N2O3)4
_chemical_formula_sum   'Mn6 H122 C128 N16 O24'
_cell_volume   3212.80947977
_cell_formula_units_Z   2
loop_
 _symmetry_equiv_pos_site_id
 _symmetry_equiv_pos_as_xyz
  1  'x, y, z'
loop_
 _atom_site_type_symbol
 _atom_site_label
 _atom_site_symmetry_multiplicity
 _atom_site_fract_x
 _atom_site_fract_y
 _atom_site_fract_z
 _atom_site_occupancy
 _atom_site_charge
  Mn  Mn1  1  0.952650  0.027410  0.392580  1.0  1.0232
  Mn  Mn2  1  0.027410  0.952650  0.607420  1.0  1.0224
  Mn  Mn3  1  0.027410  0.952650  0.892580  1.0  1.0229
  Mn  Mn4  1  0.952650  0.027410  0.107420  1.0  1.0227
  Mn  Mn5  1  0.972690  0.972690  0.500000  1.0  1.0313
  Mn  Mn6  1  0.972690  0.972690  0.000000  1.0  1.0313
  H  H7  1  0.273400  0.959800  0.382900  1.0  0.0904
  H  H8  1  0.680100  0.925300  0.389700  1.0  0.0827
  H  H9  1  0.460400  0.976000  0.488900  1.0  0.0962
  H  H10  1  0.231800  0.301200  0.309200  1.0  0.0955
  H  H11  1  0.487500  0.329700  0.289000  1.0  0.1222
  H  H12  1  0.528300  0.483500  0.282600  1.0  0.1164
  H  H13  1  0.400600  0.445600  0.308700  1.0  0.114
  H  H14  1  0.799400  0.280000  0.340100  1.0  0.1042
  H  H15  1  0.676300  0.473700  0.367200  1.0  0.1353
  H  H16  1  0.793600  0.236800  0.455500  1.0  0.0974
  H  H17  1  0.656000  0.439800  0.477800  1.0  0.1068
  H  H18  1  0.678100  0.566500  0.449700  1.0  0.1072
  H  H19  1  0.453300  0.278300  0.449200  1.0  0.0883
  H  H20  1  0.231500  0.275900  0.429500  1.0  0.1202
  H  H21  1  0.249200  0.676400  0.416400  1.0  0.084
  H  H22  1  0.477600  0.673600  0.431900  1.0  0.0899
  H  H23  1  0.010700  0.466500  0.434800  1.0  0.1059
  H  H24  1  0.046000  0.393000  0.394700  1.0  0.1052
  H  H25  1  0.966800  0.726200  0.432000  1.0  0.0951
  H  H26  1  0.986500  0.787700  0.317400  1.0  0.107
  H  H27  1  0.048600  0.551000  0.329200  1.0  0.1322
  H  H28  1  0.281700  0.919700  0.321600  1.0  0.1116
  H  H29  1  0.363300  0.836500  0.289700  1.0  0.1095
  H  H30  1  0.333400  0.772000  0.331500  1.0  0.1034
  H  H31  1  0.585300  0.101700  0.325900  1.0  0.1078
  H  H32  1  0.508400  0.054200  0.287300  1.0  0.11
  H  H33  1  0.425800  0.114200  0.323200  1.0  0.1083
  H  H34  1  0.603400  0.743200  0.332900  1.0  0.1117
  H  H35  1  0.599300  0.816300  0.291400  1.0  0.1154
  H  H36  1  0.689900  0.876500  0.325800  1.0  0.124
  H  H37  1  0.959800  0.273400  0.617100  1.0  0.0911
  H  H38  1  0.925300  0.680100  0.610300  1.0  0.0842
  H  H39  1  0.976000  0.460400  0.511100  1.0  0.0954
  H  H40  1  0.301200  0.231800  0.690800  1.0  0.0969
  H  H41  1  0.329700  0.487500  0.711000  1.0  0.1234
  H  H42  1  0.483500  0.528300  0.717400  1.0  0.116
  H  H43  1  0.445600  0.400600  0.691300  1.0  0.1131
  H  H44  1  0.280000  0.799400  0.659900  1.0  0.104
  H  H45  1  0.473700  0.676300  0.632800  1.0  0.135
  H  H46  1  0.236800  0.793600  0.544500  1.0  0.0975
  H  H47  1  0.439800  0.656000  0.522200  1.0  0.1061
  H  H48  1  0.566500  0.678100  0.550300  1.0  0.106
  H  H49  1  0.278300  0.453300  0.550800  1.0  0.0879
  H  H50  1  0.275900  0.231500  0.570500  1.0  0.1195
  H  H51  1  0.676400  0.249200  0.583600  1.0  0.0837
  H  H52  1  0.673600  0.477600  0.568100  1.0  0.0899
  H  H53  1  0.466500  0.010700  0.565200  1.0  0.1053
  H  H54  1  0.393000  0.046000  0.605300  1.0  0.1055
  H  H55  1  0.726200  0.966800  0.568000  1.0  0.0955
  H  H56  1  0.787700  0.986500  0.682600  1.0  0.1073
  H  H57  1  0.551000  0.048600  0.670800  1.0  0.1324
  H  H58  1  0.919700  0.281700  0.678400  1.0  0.1111
  H  H59  1  0.836500  0.363300  0.710300  1.0  0.1093
  H  H60  1  0.772000  0.333400  0.668500  1.0  0.1028
  H  H61  1  0.101700  0.585300  0.674100  1.0  0.1075
  H  H62  1  0.054200  0.508400  0.712700  1.0  0.1095
  H  H63  1  0.114200  0.425800  0.676800  1.0  0.1076
  H  H64  1  0.743200  0.603400  0.667100  1.0  0.11
  H  H65  1  0.816300  0.599300  0.708600  1.0  0.116
  H  H66  1  0.876500  0.689900  0.674200  1.0  0.1219
  H  H67  1  0.959800  0.273400  0.882900  1.0  0.0913
  H  H68  1  0.925300  0.680100  0.889700  1.0  0.0845
  H  H69  1  0.976000  0.460400  0.988900  1.0  0.0959
  H  H70  1  0.301200  0.231800  0.809200  1.0  0.0961
  H  H71  1  0.329700  0.487500  0.789000  1.0  0.1236
  H  H72  1  0.483500  0.528300  0.782600  1.0  0.1159
  H  H73  1  0.445600  0.400600  0.808700  1.0  0.1143
  H  H74  1  0.280000  0.799400  0.840100  1.0  0.1037
  H  H75  1  0.473700  0.676300  0.867200  1.0  0.1347
  H  H76  1  0.236800  0.793600  0.955500  1.0  0.0976
  H  H77  1  0.439800  0.656000  0.977800  1.0  0.1068
  H  H78  1  0.566500  0.678100  0.949700  1.0  0.1059
  H  H79  1  0.278300  0.453300  0.949200  1.0  0.0875
  H  H80  1  0.275900  0.231500  0.929500  1.0  0.1196
  H  H81  1  0.676400  0.249200  0.916400  1.0  0.0837
  H  H82  1  0.673600  0.477600  0.931900  1.0  0.0899
  H  H83  1  0.466500  0.010700  0.934800  1.0  0.1058
  H  H84  1  0.393000  0.046000  0.894700  1.0  0.1054
  H  H85  1  0.726200  0.966800  0.932000  1.0  0.0958
  H  H86  1  0.787700  0.986500  0.817400  1.0  0.1072
  H  H87  1  0.551000  0.048600  0.829200  1.0  0.1325
  H  H88  1  0.919700  0.281700  0.821600  1.0  0.1105
  H  H89  1  0.836500  0.363300  0.789700  1.0  0.1092
  H  H90  1  0.772000  0.333400  0.831500  1.0  0.103
  H  H91  1  0.101700  0.585300  0.825900  1.0  0.107
  H  H92  1  0.054200  0.508400  0.787300  1.0  0.1091
  H  H93  1  0.114200  0.425800  0.823200  1.0  0.108
  H  H94  1  0.743200  0.603400  0.832900  1.0  0.1095
  H  H95  1  0.816300  0.599300  0.791400  1.0  0.1159
  H  H96  1  0.876500  0.689900  0.825800  1.0  0.1219
  H  H97  1  0.273400  0.959800  0.117100  1.0  0.0904
  H  H98  1  0.680100  0.925300  0.110300  1.0  0.0827
  H  H99  1  0.460400  0.976000  0.011100  1.0  0.0961
  H  H100  1  0.231800  0.301200  0.190800  1.0  0.0964
  H  H101  1  0.487500  0.329700  0.211000  1.0  0.1226
  H  H102  1  0.528300  0.483500  0.217400  1.0  0.1167
  H  H103  1  0.400600  0.445600  0.191300  1.0  0.1132
  H  H104  1  0.799400  0.280000  0.159900  1.0  0.1044
  H  H105  1  0.676300  0.473700  0.132800  1.0  0.1353
  H  H106  1  0.793600  0.236800  0.044500  1.0  0.097
  H  H107  1  0.656000  0.439800  0.022200  1.0  0.1058
  H  H108  1  0.678100  0.566500  0.050300  1.0  0.1073
  H  H109  1  0.453300  0.278300  0.050800  1.0  0.0884
  H  H110  1  0.231500  0.275900  0.070500  1.0  0.1201
  H  H111  1  0.249200  0.676400  0.083600  1.0  0.0841
  H  H112  1  0.477600  0.673600  0.068100  1.0  0.0899
  H  H113  1  0.010700  0.466500  0.065200  1.0  0.1049
  H  H114  1  0.046000  0.393000  0.105300  1.0  0.1059
  H  H115  1  0.966800  0.726200  0.068000  1.0  0.0948
  H  H116  1  0.986500  0.787700  0.182600  1.0  0.107
  H  H117  1  0.048600  0.551000  0.170800  1.0  0.1321
  H  H118  1  0.281700  0.919700  0.178400  1.0  0.1121
  H  H119  1  0.363300  0.836500  0.210300  1.0  0.1092
  H  H120  1  0.333400  0.772000  0.168500  1.0  0.1027
  H  H121  1  0.585300  0.101700  0.174100  1.0  0.1076
  H  H122  1  0.508400  0.054200  0.212700  1.0  0.1102
  H  H123  1  0.425800  0.114200  0.176800  1.0  0.1082
  H  H124  1  0.603400  0.743200  0.167100  1.0  0.1099
  H  H125  1  0.599300  0.816300  0.208600  1.0  0.1155
  H  H126  1  0.689900  0.876500  0.174200  1.0  0.1236
  H  H127  1  0.961700  0.068100  0.250000  1.0  0.104
  H  H128  1  0.068100  0.961700  0.750000  1.0  0.1045
  C  C129  1  0.209900  0.980900  0.458310  1.0  0.6741
  C  C130  1  0.345900  0.969700  0.438660  1.0  -0.15
  C  C131  1  0.353400  0.955400  0.397760  1.0  -0.0556
  C  C132  1  0.477800  0.934600  0.378140  1.0  -0.0009
  C  C133  1  0.595400  0.936400  0.401860  1.0  -0.0702
  C  C134  1  0.590500  0.954100  0.442650  1.0  -0.1684
  C  C135  1  0.465000  0.968000  0.461370  1.0  -0.0135
  C  C136  1  0.720600  0.958400  0.466290  1.0  0.6637
  C  C137  1  0.487600  0.915000  0.333333  1.0  0.2253
  C  C138  1  0.035100  0.121900  0.324400  1.0  0.6338
  C  C139  1  0.089300  0.175500  0.285840  1.0  -0.1492
  C  C140  1  0.196400  0.270000  0.285220  1.0  -0.0626
  C  C141  1  0.453100  0.420700  0.285700  1.0  -0.3779
  C  C142  1  0.782700  0.295500  0.366970  1.0  0.0463
  C  C143  1  0.715100  0.402700  0.381660  1.0  -0.1659
  C  C144  1  0.780100  0.271500  0.430030  1.0  0.1571
  C  C145  1  0.641800  0.474000  0.451010  1.0  -0.0586
  C  C146  1  0.490600  0.475400  0.441740  1.0  0.0211
  C  C147  1  0.413100  0.360100  0.441500  1.0  -0.1099
  C  C148  1  0.279400  0.358200  0.430700  1.0  -0.1097
  C  C149  1  0.215700  0.477500  0.421450  1.0  0.0492
  C  C150  1  0.290800  0.593600  0.422400  1.0  -0.1256
  C  C151  1  0.428000  0.592200  0.432100  1.0  -0.1192
  C  C152  1  0.064300  0.473900  0.410560  1.0  -0.071
  C  C153  1  0.980500  0.712900  0.404870  1.0  0.1494
  C  C154  1  0.990900  0.745900  0.342160  1.0  0.0503
  C  C155  1  0.025600  0.614800  0.348510  1.0  -0.1736
  C  C156  1  0.354200  0.855200  0.317600  1.0  -0.3912
  C  C157  1  0.503300  0.059900  0.315800  1.0  -0.3807
  C  C158  1  0.605700  0.830100  0.319600  1.0  -0.3897
  C  C159  1  0.980900  0.209900  0.541690  1.0  0.6779
  C  C160  1  0.969700  0.345900  0.561340  1.0  -0.1521
  C  C161  1  0.955400  0.353400  0.602240  1.0  -0.0483
  C  C162  1  0.934600  0.477800  0.621860  1.0  -0.0011
  C  C163  1  0.936400  0.595400  0.598140  1.0  -0.0664
  C  C164  1  0.954100  0.590500  0.557350  1.0  -0.1654
  C  C165  1  0.968000  0.465000  0.538630  1.0  -0.0135
  C  C166  1  0.958400  0.720600  0.533710  1.0  0.6658
  C  C167  1  0.915000  0.487600  0.666667  1.0  0.2253
  C  C168  1  0.121900  0.035100  0.675600  1.0  0.635
  C  C169  1  0.175500  0.089300  0.714160  1.0  -0.1488
  C  C170  1  0.270000  0.196400  0.714780  1.0  -0.0643
  C  C171  1  0.420700  0.453100  0.714300  1.0  -0.378
  C  C172  1  0.295500  0.782700  0.633030  1.0  0.0454
  C  C173  1  0.402700  0.715100  0.618340  1.0  -0.1639
  C  C174  1  0.271500  0.780100  0.569970  1.0  0.1568
  C  C175  1  0.474000  0.641800  0.548990  1.0  -0.0577
  C  C176  1  0.475400  0.490600  0.558260  1.0  0.0212
  C  C177  1  0.360100  0.413100  0.558500  1.0  -0.1111
  C  C178  1  0.358200  0.279400  0.569300  1.0  -0.1115
  C  C179  1  0.477500  0.215700  0.578550  1.0  0.0502
  C  C180  1  0.593600  0.290800  0.577600  1.0  -0.1272
  C  C181  1  0.592200  0.428000  0.567900  1.0  -0.1203
  C  C182  1  0.473900  0.064300  0.589440  1.0  -0.0701
  C  C183  1  0.712900  0.980500  0.595130  1.0  0.1503
  C  C184  1  0.745900  0.990900  0.657840  1.0  0.0497
  C  C185  1  0.614800  0.025600  0.651490  1.0  -0.1721
  C  C186  1  0.855200  0.354200  0.682400  1.0  -0.3915
  C  C187  1  0.059900  0.503300  0.684200  1.0  -0.382
  C  C188  1  0.830100  0.605700  0.680400  1.0  -0.3899
  C  C189  1  0.980900  0.209900  0.958310  1.0  0.6784
  C  C190  1  0.969700  0.345900  0.938660  1.0  -0.1507
  C  C191  1  0.955400  0.353400  0.897760  1.0  -0.0502
  C  C192  1  0.934600  0.477800  0.878140  1.0  -0.0017
  C  C193  1  0.936400  0.595400  0.901860  1.0  -0.0669
  C  C194  1  0.954100  0.590500  0.942650  1.0  -0.1658
  C  C195  1  0.968000  0.465000  0.961370  1.0  -0.0136
  C  C196  1  0.958400  0.720600  0.966290  1.0  0.6653
  C  C197  1  0.915000  0.487600  0.833360  1.0  0.2288
  C  C198  1  0.121900  0.035100  0.824400  1.0  0.6355
  C  C199  1  0.175500  0.089300  0.785840  1.0  -0.1489
  C  C200  1  0.270000  0.196400  0.785220  1.0  -0.0645
  C  C201  1  0.420700  0.453100  0.785700  1.0  -0.3795
  C  C202  1  0.295500  0.782700  0.866970  1.0  0.0457
  C  C203  1  0.402700  0.715100  0.881660  1.0  -0.1657
  C  C204  1  0.271500  0.780100  0.930030  1.0  0.1567
  C  C205  1  0.474000  0.641800  0.951010  1.0  -0.0583
  C  C206  1  0.475400  0.490600  0.941740  1.0  0.0209
  C  C207  1  0.360100  0.413100  0.941500  1.0  -0.1113
  C  C208  1  0.358200  0.279400  0.930700  1.0  -0.1119
  C  C209  1  0.477500  0.215700  0.921450  1.0  0.0502
  C  C210  1  0.593600  0.290800  0.922400  1.0  -0.1272
  C  C211  1  0.592200  0.428000  0.932100  1.0  -0.1205
  C  C212  1  0.473900  0.064300  0.910560  1.0  -0.0704
  C  C213  1  0.712900  0.980500  0.904870  1.0  0.1512
  C  C214  1  0.745900  0.990900  0.842160  1.0  0.05
  C  C215  1  0.614800  0.025600  0.848510  1.0  -0.1732
  C  C216  1  0.855200  0.354200  0.817600  1.0  -0.3915
  C  C217  1  0.059900  0.503300  0.815800  1.0  -0.3822
  C  C218  1  0.830100  0.605700  0.819600  1.0  -0.3901
  C  C219  1  0.209900  0.980900  0.041690  1.0  0.6748
  C  C220  1  0.345900  0.969700  0.061340  1.0  -0.1499
  C  C221  1  0.353400  0.955400  0.102240  1.0  -0.0533
  C  C222  1  0.477800  0.934600  0.121860  1.0  -0.0017
  C  C223  1  0.595400  0.936400  0.098140  1.0  -0.0694
  C  C224  1  0.590500  0.954100  0.057350  1.0  -0.1683
  C  C225  1  0.465000  0.968000  0.038630  1.0  -0.0136
  C  C226  1  0.720600  0.958400  0.033710  1.0  0.6637
  C  C227  1  0.487600  0.915000  0.166640  1.0  0.2287
  C  C228  1  0.035100  0.121900  0.175600  1.0  0.6336
  C  C229  1  0.089300  0.175500  0.214160  1.0  -0.1494
  C  C230  1  0.196400  0.270000  0.214780  1.0  -0.0624
  C  C231  1  0.453100  0.420700  0.214300  1.0  -0.3798
  C  C232  1  0.782700  0.295500  0.133030  1.0  0.0469
  C  C233  1  0.715100  0.402700  0.118340  1.0  -0.1645
  C  C234  1  0.780100  0.271500  0.069970  1.0  0.1564
  C  C235  1  0.641800  0.474000  0.048990  1.0  -0.0582
  C  C236  1  0.490600  0.475400  0.058260  1.0  0.0214
  C  C237  1  0.413100  0.360100  0.058500  1.0  -0.1096
  C  C238  1  0.279400  0.358200  0.069300  1.0  -0.1094
  C  C239  1  0.215700  0.477500  0.078550  1.0  0.0491
  C  C240  1  0.290800  0.593600  0.077600  1.0  -0.1257
  C  C241  1  0.428000  0.592200  0.067900  1.0  -0.119
  C  C242  1  0.064300  0.473900  0.089440  1.0  -0.0709
  C  C243  1  0.980500  0.712900  0.095130  1.0  0.1491
  C  C244  1  0.990900  0.745900  0.157840  1.0  0.0494
  C  C245  1  0.025600  0.614800  0.151490  1.0  -0.1718
  C  C246  1  0.354200  0.855200  0.182400  1.0  -0.391
  C  C247  1  0.503300  0.059900  0.184200  1.0  -0.3803
  C  C248  1  0.605700  0.830100  0.180400  1.0  -0.3886
  C  C249  1  0.034700  0.129500  0.250000  1.0  0.0084
  C  C250  1  0.251800  0.319200  0.250000  1.0  -0.0153
  C  C251  1  0.365200  0.426200  0.250000  1.0  0.2084
  C  C252  1  0.299600  0.564600  0.250000  1.0  -0.1293
  C  C253  1  0.129500  0.034700  0.750000  1.0  0.0074
  C  C254  1  0.319200  0.251800  0.750000  1.0  -0.0143
  C  C255  1  0.426200  0.365200  0.750000  1.0  0.2091
  C  C256  1  0.564600  0.299600  0.750000  1.0  -0.1278
  N  N257  1  0.824000  0.211800  0.397500  1.0  -0.4208
  N  N258  1  0.714400  0.387000  0.422450  1.0  0.0432
  N  N259  1  0.962700  0.808900  0.377770  1.0  -0.4154
  N  N260  1  0.021000  0.593000  0.388760  1.0  0.052
  N  N261  1  0.211800  0.824000  0.602500  1.0  -0.4189
  N  N262  1  0.387000  0.714400  0.577550  1.0  0.0431
  N  N263  1  0.808900  0.962700  0.622230  1.0  -0.4141
  N  N264  1  0.593000  0.021000  0.611240  1.0  0.0531
  N  N265  1  0.211800  0.824000  0.897500  1.0  -0.4194
  N  N266  1  0.387000  0.714400  0.922450  1.0  0.043
  N  N267  1  0.808900  0.962700  0.877770  1.0  -0.414
  N  N268  1  0.593000  0.021000  0.888760  1.0  0.0524
  N  N269  1  0.824000  0.211800  0.102500  1.0  -0.42
  N  N270  1  0.714400  0.387000  0.077550  1.0  0.0433
  N  N271  1  0.962700  0.808900  0.122230  1.0  -0.4156
  N  N272  1  0.021000  0.593000  0.111240  1.0  0.0529
  O  O273  1  0.106570  0.009030  0.437690  1.0  -0.6295
  O  O274  1  0.198500  0.962100  0.494990  1.0  -0.5922
  O  O275  1  0.717100  0.964900  0.502900  1.0  -0.5865
  O  O276  1  0.834810  0.958990  0.447980  1.0  -0.636
  O  O277  1  0.099000  0.149000  0.356130  1.0  -0.5872
  O  O278  1  0.928980  0.049620  0.324640  1.0  -0.589
  O  O279  1  0.009030  0.106570  0.562310  1.0  -0.6312
  O  O280  1  0.962100  0.198500  0.505010  1.0  -0.593
  O  O281  1  0.964900  0.717100  0.497100  1.0  -0.5857
  O  O282  1  0.958990  0.834810  0.552020  1.0  -0.6352
  O  O283  1  0.149000  0.099000  0.643870  1.0  -0.5839
  O  O284  1  0.049620  0.928980  0.675360  1.0  -0.5876
  O  O285  1  0.009030  0.106570  0.937690  1.0  -0.6308
  O  O286  1  0.962100  0.198500  0.994990  1.0  -0.5929
  O  O287  1  0.964900  0.717100  0.002900  1.0  -0.5868
  O  O288  1  0.958990  0.834810  0.947980  1.0  -0.635
  O  O289  1  0.149000  0.099000  0.856130  1.0  -0.5859
  O  O290  1  0.049620  0.928980  0.824640  1.0  -0.5874
  O  O291  1  0.106570  0.009030  0.062310  1.0  -0.6298
  O  O292  1  0.198500  0.962100  0.005010  1.0  -0.5918
  O  O293  1  0.717100  0.964900  0.997100  1.0  -0.5854
  O  O294  1  0.834810  0.958990  0.052020  1.0  -0.6362
  O  O295  1  0.099000  0.149000  0.143870  1.0  -0.5848
  O  O296  1  0.928980  0.049620  0.175360  1.0  -0.5892
