# generated using pymatgen
data_NdMo(CN)8
_symmetry_space_group_name_H-M   'P 1'
_cell_length_a   20.88300000
_cell_length_b   20.88300000
_cell_length_c   32.65800000
_cell_angle_alpha   90.00000000
_cell_angle_beta   90.00000000
_cell_angle_gamma   120.00000000
_symmetry_Int_Tables_number   1
_chemical_formula_structural   NdMo(CN)8
_chemical_formula_sum   'Nd18 Mo18 C144 N144'
_cell_volume   12334.05819950
_cell_formula_units_Z   18
loop_
 _symmetry_equiv_pos_site_id
 _symmetry_equiv_pos_as_xyz
  1  'x, y, z'
loop_
 _atom_site_type_symbol
 _atom_site_label
 _atom_site_symmetry_multiplicity
 _atom_site_fract_x
 _atom_site_fract_y
 _atom_site_fract_z
 _atom_site_occupancy
 _atom_site_charge
  Nd  Nd1  1  0.051810  0.385140  0.916670  1.0  2.1597
  Nd  Nd2  1  0.718470  0.718470  0.250000  1.0  2.1603
  Nd  Nd3  1  0.614860  0.666667  0.916670  1.0  2.1596
  Nd  Nd4  1  0.281530  0.000000  0.250000  1.0  2.16
  Nd  Nd5  1  0.333333  0.948190  0.916670  1.0  2.16
  Nd  Nd6  1  0.000000  0.281530  0.250000  1.0  2.1607
  Nd  Nd7  1  0.385140  0.051810  0.583330  1.0  2.1601
  Nd  Nd8  1  0.666667  0.614860  0.583330  1.0  2.1603
  Nd  Nd9  1  0.948190  0.333333  0.583330  1.0  2.1593
  Nd  Nd10  1  0.948190  0.614860  0.083330  1.0  2.1604
  Nd  Nd11  1  0.385140  0.333333  0.083330  1.0  2.1591
  Nd  Nd12  1  0.666667  0.051810  0.083330  1.0  2.1601
  Nd  Nd13  1  0.614860  0.948190  0.416670  1.0  2.1601
  Nd  Nd14  1  0.281530  0.281530  0.750000  1.0  2.1606
  Nd  Nd15  1  0.333333  0.385140  0.416670  1.0  2.1597
  Nd  Nd16  1  0.000000  0.718470  0.750000  1.0  2.1601
  Nd  Nd17  1  0.051810  0.666667  0.416670  1.0  2.1593
  Nd  Nd18  1  0.718470  0.000000  0.750000  1.0  2.1595
  Mo  Mo19  1  0.000000  0.267420  0.750000  1.0  -0.1963
  Mo  Mo20  1  0.666667  0.600750  0.083330  1.0  -0.1961
  Mo  Mo21  1  0.333333  0.934090  0.416670  1.0  -0.196
  Mo  Mo22  1  0.732580  0.732580  0.750000  1.0  -0.1949
  Mo  Mo23  1  0.399250  0.065910  0.083330  1.0  -0.1948
  Mo  Mo24  1  0.065910  0.399250  0.416670  1.0  -0.1949
  Mo  Mo25  1  0.267420  0.000000  0.750000  1.0  -0.1956
  Mo  Mo26  1  0.934090  0.333333  0.083330  1.0  -0.1958
  Mo  Mo27  1  0.600750  0.666667  0.416670  1.0  -0.1955
  Mo  Mo28  1  0.000000  0.732580  0.250000  1.0  -0.1943
  Mo  Mo29  1  0.666667  0.065910  0.583330  1.0  -0.1942
  Mo  Mo30  1  0.333333  0.399250  0.916670  1.0  -0.1942
  Mo  Mo31  1  0.267420  0.267420  0.250000  1.0  -0.1958
  Mo  Mo32  1  0.934090  0.600750  0.583330  1.0  -0.1958
  Mo  Mo33  1  0.600750  0.934090  0.916670  1.0  -0.1959
  Mo  Mo34  1  0.732580  0.000000  0.250000  1.0  -0.1968
  Mo  Mo35  1  0.399250  0.333333  0.583330  1.0  -0.1967
  Mo  Mo36  1  0.065910  0.666667  0.916670  1.0  -0.1964
  C  C37  1  0.015800  0.306300  0.812460  1.0  0.2376
  C  C38  1  0.927100  0.311600  0.759310  1.0  0.2447
  C  C39  1  0.984200  0.178800  0.788440  1.0  0.1453
  C  C40  1  0.111700  0.289500  0.757790  1.0  0.2308
  C  C41  1  0.682470  0.639630  0.145790  1.0  0.2376
  C  C42  1  0.593770  0.644930  0.092640  1.0  0.2447
  C  C43  1  0.650870  0.512130  0.121770  1.0  0.1453
  C  C44  1  0.778370  0.622830  0.091120  1.0  0.2308
  C  C45  1  0.349130  0.972970  0.479130  1.0  0.2376
  C  C46  1  0.260430  0.978270  0.425980  1.0  0.2447
  C  C47  1  0.317530  0.845470  0.455110  1.0  0.1453
  C  C48  1  0.445030  0.956170  0.424460  1.0  0.2308
  C  C49  1  0.693700  0.709500  0.812460  1.0  0.2385
  C  C50  1  0.688400  0.615500  0.759310  1.0  0.2422
  C  C51  1  0.821200  0.805400  0.788440  1.0  0.1439
  C  C52  1  0.710500  0.822200  0.757790  1.0  0.2317
  C  C53  1  0.360370  0.042830  0.145790  1.0  0.2385
  C  C54  1  0.355070  0.948830  0.092640  1.0  0.2422
  C  C55  1  0.487870  0.138730  0.121770  1.0  0.1439
  C  C56  1  0.377170  0.155530  0.091120  1.0  0.2317
  C  C57  1  0.027030  0.376170  0.479130  1.0  0.2385
  C  C58  1  0.021730  0.282170  0.425980  1.0  0.2421
  C  C59  1  0.154530  0.472070  0.455110  1.0  0.144
  C  C60  1  0.043830  0.488870  0.424460  1.0  0.2317
  C  C61  1  0.290500  0.984200  0.812460  1.0  0.2374
  C  C62  1  0.384500  0.072900  0.759310  1.0  0.2419
  C  C63  1  0.194600  0.015800  0.788440  1.0  0.1443
  C  C64  1  0.177800  0.888300  0.757790  1.0  0.2307
  C  C65  1  0.957170  0.317530  0.145790  1.0  0.2374
  C  C66  1  0.051170  0.406230  0.092640  1.0  0.2419
  C  C67  1  0.861270  0.349130  0.121770  1.0  0.1442
  C  C68  1  0.844470  0.221630  0.091120  1.0  0.2307
  C  C69  1  0.623830  0.650870  0.479130  1.0  0.2374
  C  C70  1  0.717830  0.739570  0.425980  1.0  0.2419
  C  C71  1  0.527930  0.682470  0.455110  1.0  0.1443
  C  C72  1  0.511130  0.554970  0.424460  1.0  0.2307
  C  C73  1  0.306300  0.015800  0.687540  1.0  0.2332
  C  C74  1  0.311600  0.927100  0.740690  1.0  0.2455
  C  C75  1  0.178800  0.984200  0.711560  1.0  0.1443
  C  C76  1  0.289500  0.111700  0.742210  1.0  0.2313
  C  C77  1  0.972970  0.349130  0.020870  1.0  0.2332
  C  C78  1  0.978270  0.260430  0.074020  1.0  0.2455
  C  C79  1  0.845470  0.317530  0.044890  1.0  0.1443
  C  C80  1  0.956170  0.445030  0.075540  1.0  0.2313
  C  C81  1  0.639630  0.682470  0.354210  1.0  0.2332
  C  C82  1  0.644930  0.593770  0.407360  1.0  0.2455
  C  C83  1  0.512130  0.650870  0.378230  1.0  0.1443
  C  C84  1  0.622830  0.778370  0.408880  1.0  0.2313
  C  C85  1  0.709500  0.693700  0.687540  1.0  0.234
  C  C86  1  0.615500  0.688400  0.740690  1.0  0.2444
  C  C87  1  0.805400  0.821200  0.711560  1.0  0.1429
  C  C88  1  0.822200  0.710500  0.742210  1.0  0.2335
  C  C89  1  0.376170  0.027030  0.020870  1.0  0.234
  C  C90  1  0.282170  0.021730  0.074020  1.0  0.2444
  C  C91  1  0.472070  0.154530  0.044890  1.0  0.1429
  C  C92  1  0.488870  0.043830  0.075540  1.0  0.2335
  C  C93  1  0.042830  0.360370  0.354210  1.0  0.234
  C  C94  1  0.948830  0.355070  0.407360  1.0  0.2444
  C  C95  1  0.138730  0.487870  0.378230  1.0  0.1429
  C  C96  1  0.155530  0.377170  0.408880  1.0  0.2335
  C  C97  1  0.984200  0.290500  0.687540  1.0  0.2346
  C  C98  1  0.072900  0.384500  0.740690  1.0  0.2385
  C  C99  1  0.015800  0.194600  0.711560  1.0  0.1446
  C  C100  1  0.888300  0.177800  0.742210  1.0  0.2345
  C  C101  1  0.650870  0.623830  0.020870  1.0  0.2346
  C  C102  1  0.739570  0.717830  0.074020  1.0  0.2385
  C  C103  1  0.682470  0.527930  0.044890  1.0  0.1446
  C  C104  1  0.554970  0.511130  0.075540  1.0  0.2345
  C  C105  1  0.317530  0.957170  0.354210  1.0  0.2346
  C  C106  1  0.406230  0.051170  0.407360  1.0  0.2385
  C  C107  1  0.349130  0.861270  0.378230  1.0  0.1446
  C  C108  1  0.221630  0.844470  0.408880  1.0  0.2345
  C  C109  1  0.984200  0.693700  0.187540  1.0  0.2378
  C  C110  1  0.072900  0.688400  0.240690  1.0  0.2453
  C  C111  1  0.015800  0.821200  0.211560  1.0  0.1423
  C  C112  1  0.888300  0.710500  0.242210  1.0  0.2318
  C  C113  1  0.650870  0.027030  0.520870  1.0  0.2378
  C  C114  1  0.739570  0.021730  0.574020  1.0  0.2453
  C  C115  1  0.682470  0.154530  0.544890  1.0  0.1423
  C  C116  1  0.554970  0.043830  0.575540  1.0  0.2318
  C  C117  1  0.317530  0.360370  0.854210  1.0  0.2378
  C  C118  1  0.406230  0.355070  0.907360  1.0  0.2453
  C  C119  1  0.349130  0.487870  0.878230  1.0  0.1423
  C  C120  1  0.221630  0.377170  0.908880  1.0  0.2318
  C  C121  1  0.306300  0.290500  0.187540  1.0  0.238
  C  C122  1  0.311600  0.384500  0.240690  1.0  0.2383
  C  C123  1  0.178800  0.194600  0.211560  1.0  0.1444
  C  C124  1  0.289500  0.177800  0.242210  1.0  0.2323
  C  C125  1  0.972970  0.623830  0.520870  1.0  0.238
  C  C126  1  0.978270  0.717830  0.574020  1.0  0.2382
  C  C127  1  0.845470  0.527930  0.544890  1.0  0.1444
  C  C128  1  0.956170  0.511130  0.575540  1.0  0.2323
  C  C129  1  0.639630  0.957170  0.854210  1.0  0.238
  C  C130  1  0.644930  0.051170  0.907360  1.0  0.2383
  C  C131  1  0.512130  0.861270  0.878230  1.0  0.1444
  C  C132  1  0.622830  0.844470  0.908880  1.0  0.2323
  C  C133  1  0.709500  0.015800  0.187540  1.0  0.2376
  C  C134  1  0.615500  0.927100  0.240690  1.0  0.2446
  C  C135  1  0.805400  0.984200  0.211560  1.0  0.1441
  C  C136  1  0.822200  0.111700  0.242210  1.0  0.2284
  C  C137  1  0.376170  0.349130  0.520870  1.0  0.2376
  C  C138  1  0.282170  0.260430  0.574020  1.0  0.2446
  C  C139  1  0.472070  0.317530  0.544890  1.0  0.1442
  C  C140  1  0.488870  0.445030  0.575540  1.0  0.2284
  C  C141  1  0.042830  0.682470  0.854210  1.0  0.2376
  C  C142  1  0.948830  0.593770  0.907360  1.0  0.2446
  C  C143  1  0.138730  0.650870  0.878230  1.0  0.1441
  C  C144  1  0.155530  0.778370  0.908880  1.0  0.2284
  C  C145  1  0.693700  0.984200  0.312460  1.0  0.234
  C  C146  1  0.688400  0.072900  0.259310  1.0  0.2414
  C  C147  1  0.821200  0.015800  0.288440  1.0  0.1447
  C  C148  1  0.710500  0.888300  0.257790  1.0  0.2321
  C  C149  1  0.360370  0.317530  0.645790  1.0  0.234
  C  C150  1  0.355070  0.406230  0.592640  1.0  0.2414
  C  C151  1  0.487870  0.349130  0.621770  1.0  0.1447
  C  C152  1  0.377170  0.221630  0.591120  1.0  0.2321
  C  C153  1  0.027030  0.650870  0.979130  1.0  0.234
  C  C154  1  0.021730  0.739570  0.925980  1.0  0.2414
  C  C155  1  0.154530  0.682470  0.955110  1.0  0.1446
  C  C156  1  0.043830  0.554970  0.924460  1.0  0.2321
  C  C157  1  0.290500  0.306300  0.312460  1.0  0.2337
  C  C158  1  0.384500  0.311600  0.259310  1.0  0.2427
  C  C159  1  0.194600  0.178800  0.288440  1.0  0.1451
  C  C160  1  0.177800  0.289500  0.257790  1.0  0.2336
  C  C161  1  0.957170  0.639630  0.645790  1.0  0.2337
  C  C162  1  0.051170  0.644930  0.592640  1.0  0.2427
  C  C163  1  0.861270  0.512130  0.621770  1.0  0.1451
  C  C164  1  0.844470  0.622830  0.591120  1.0  0.2336
  C  C165  1  0.623830  0.972970  0.979130  1.0  0.2337
  C  C166  1  0.717830  0.978270  0.925980  1.0  0.2427
  C  C167  1  0.527930  0.845470  0.955110  1.0  0.1452
  C  C168  1  0.511130  0.956170  0.924460  1.0  0.2336
  C  C169  1  0.015800  0.709500  0.312460  1.0  0.2351
  C  C170  1  0.927100  0.615500  0.259310  1.0  0.2405
  C  C171  1  0.984200  0.805400  0.288440  1.0  0.1432
  C  C172  1  0.111700  0.822200  0.257790  1.0  0.2326
  C  C173  1  0.682470  0.042830  0.645790  1.0  0.2351
  C  C174  1  0.593770  0.948830  0.592640  1.0  0.2405
  C  C175  1  0.650870  0.138730  0.621770  1.0  0.1433
  C  C176  1  0.778370  0.155530  0.591120  1.0  0.2326
  C  C177  1  0.349130  0.376170  0.979130  1.0  0.2351
  C  C178  1  0.260430  0.282170  0.925980  1.0  0.2404
  C  C179  1  0.317530  0.472070  0.955110  1.0  0.1433
  C  C180  1  0.445030  0.488870  0.924460  1.0  0.2326
  N  N181  1  0.023600  0.328100  0.845500  1.0  -0.5512
  N  N182  1  0.887200  0.332600  0.765460  1.0  -0.3548
  N  N183  1  0.968600  0.128100  0.808340  1.0  -0.378
  N  N184  1  0.170000  0.297500  0.760180  1.0  -0.5619
  N  N185  1  0.690270  0.661430  0.178830  1.0  -0.5512
  N  N186  1  0.553870  0.665930  0.098790  1.0  -0.3531
  N  N187  1  0.635270  0.461430  0.141670  1.0  -0.378
  N  N188  1  0.836670  0.630830  0.093510  1.0  -0.5619
  N  N189  1  0.356930  0.994770  0.512170  1.0  -0.5511
  N  N190  1  0.220530  0.999270  0.432130  1.0  -0.3576
  N  N191  1  0.301930  0.794770  0.475010  1.0  -0.3671
  N  N192  1  0.503330  0.964170  0.426850  1.0  -0.562
  N  N193  1  0.671900  0.695500  0.845500  1.0  -0.5482
  N  N194  1  0.667400  0.554600  0.765460  1.0  -0.3564
  N  N195  1  0.871900  0.840500  0.808340  1.0  -0.3689
  N  N196  1  0.702500  0.872500  0.760180  1.0  -0.5634
  N  N197  1  0.338570  0.028830  0.178830  1.0  -0.5482
  N  N198  1  0.334070  0.887930  0.098790  1.0  -0.3581
  N  N199  1  0.538570  0.173830  0.141670  1.0  -0.3689
  N  N200  1  0.369170  0.205830  0.093510  1.0  -0.5634
  N  N201  1  0.005230  0.362170  0.512170  1.0  -0.5482
  N  N202  1  0.000730  0.221270  0.432130  1.0  -0.3546
  N  N203  1  0.205230  0.507170  0.475010  1.0  -0.3683
  N  N204  1  0.035830  0.539170  0.426850  1.0  -0.5635
  N  N205  1  0.304500  0.976400  0.845500  1.0  -0.5492
  N  N206  1  0.445400  0.112800  0.765460  1.0  -0.3517
  N  N207  1  0.159500  0.031400  0.808340  1.0  -0.3672
  N  N208  1  0.127500  0.830000  0.760180  1.0  -0.5617
  N  N209  1  0.971170  0.309730  0.178830  1.0  -0.5492
  N  N210  1  0.112070  0.446130  0.098790  1.0  -0.3553
  N  N211  1  0.826170  0.364730  0.141670  1.0  -0.3673
  N  N212  1  0.794170  0.163330  0.093510  1.0  -0.5617
  N  N213  1  0.637830  0.643070  0.512170  1.0  -0.549
  N  N214  1  0.778730  0.779470  0.432130  1.0  -0.3537
  N  N215  1  0.492830  0.698070  0.475010  1.0  -0.3768
  N  N216  1  0.460830  0.496670  0.426850  1.0  -0.5615
  N  N217  1  0.328100  0.023600  0.654500  1.0  -0.5501
  N  N218  1  0.332600  0.887200  0.734540  1.0  -0.3541
  N  N219  1  0.128100  0.968600  0.691660  1.0  -0.3782
  N  N220  1  0.297500  0.170000  0.739820  1.0  -0.5624
  N  N221  1  0.994770  0.356930  0.987830  1.0  -0.55
  N  N222  1  0.999270  0.220530  0.067870  1.0  -0.3537
  N  N223  1  0.794770  0.301930  0.024990  1.0  -0.3682
  N  N224  1  0.964170  0.503330  0.073150  1.0  -0.5624
  N  N225  1  0.661430  0.690270  0.321170  1.0  -0.5501
  N  N226  1  0.665930  0.553870  0.401210  1.0  -0.3521
  N  N227  1  0.461430  0.635270  0.358330  1.0  -0.3782
  N  N228  1  0.630830  0.836670  0.406490  1.0  -0.5624
  N  N229  1  0.695500  0.671900  0.654500  1.0  -0.5515
  N  N230  1  0.554600  0.667400  0.734540  1.0  -0.3561
  N  N231  1  0.840500  0.871900  0.691660  1.0  -0.3664
  N  N232  1  0.872500  0.702500  0.739820  1.0  -0.5613
  N  N233  1  0.362170  0.005230  0.987830  1.0  -0.5514
  N  N234  1  0.221270  0.000730  0.067870  1.0  -0.3547
  N  N235  1  0.507170  0.205230  0.024990  1.0  -0.366
  N  N236  1  0.539170  0.035830  0.073150  1.0  -0.5614
  N  N237  1  0.028830  0.338570  0.321170  1.0  -0.5515
  N  N238  1  0.887930  0.334070  0.401210  1.0  -0.3579
  N  N239  1  0.173830  0.538570  0.358330  1.0  -0.3664
  N  N240  1  0.205830  0.369170  0.406490  1.0  -0.5613
  N  N241  1  0.976400  0.304500  0.654500  1.0  -0.5499
  N  N242  1  0.112800  0.445400  0.734540  1.0  -0.351
  N  N243  1  0.031400  0.159500  0.691660  1.0  -0.3658
  N  N244  1  0.830000  0.127500  0.739820  1.0  -0.5593
  N  N245  1  0.643070  0.637830  0.987830  1.0  -0.5497
  N  N246  1  0.779470  0.778730  0.067870  1.0  -0.3526
  N  N247  1  0.698070  0.492830  0.024990  1.0  -0.3754
  N  N248  1  0.496670  0.460830  0.073150  1.0  -0.5592
  N  N249  1  0.309730  0.971170  0.321170  1.0  -0.5499
  N  N250  1  0.446130  0.112070  0.401210  1.0  -0.3545
  N  N251  1  0.364730  0.826170  0.358330  1.0  -0.3659
  N  N252  1  0.163330  0.794170  0.406490  1.0  -0.5593
  N  N253  1  0.976400  0.671900  0.154500  1.0  -0.5505
  N  N254  1  0.112800  0.667400  0.234540  1.0  -0.3555
  N  N255  1  0.031400  0.871900  0.191660  1.0  -0.378
  N  N256  1  0.830000  0.702500  0.239820  1.0  -0.5594
  N  N257  1  0.643070  0.005230  0.487830  1.0  -0.5504
  N  N258  1  0.779470  0.000730  0.567870  1.0  -0.3582
  N  N259  1  0.698070  0.205230  0.524990  1.0  -0.3667
  N  N260  1  0.496670  0.035830  0.573150  1.0  -0.5595
  N  N261  1  0.309730  0.338570  0.821170  1.0  -0.5505
  N  N262  1  0.446130  0.334070  0.901210  1.0  -0.3536
  N  N263  1  0.364730  0.538570  0.858330  1.0  -0.378
  N  N264  1  0.163330  0.369170  0.906490  1.0  -0.5594
  N  N265  1  0.328100  0.304500  0.154500  1.0  -0.5497
  N  N266  1  0.332600  0.445400  0.234540  1.0  -0.3571
  N  N267  1  0.128100  0.159500  0.191660  1.0  -0.3676
  N  N268  1  0.297500  0.127500  0.239820  1.0  -0.5614
  N  N269  1  0.994770  0.637830  0.487830  1.0  -0.5496
  N  N270  1  0.999270  0.778730  0.567870  1.0  -0.3544
  N  N271  1  0.794770  0.492830  0.524990  1.0  -0.3665
  N  N272  1  0.964170  0.460830  0.573150  1.0  -0.5615
  N  N273  1  0.661430  0.971170  0.821170  1.0  -0.5497
  N  N274  1  0.665930  0.112070  0.901210  1.0  -0.3588
  N  N275  1  0.461430  0.826170  0.858330  1.0  -0.3676
  N  N276  1  0.630830  0.794170  0.906490  1.0  -0.5614
  N  N277  1  0.695500  0.023600  0.154500  1.0  -0.5492
  N  N278  1  0.554600  0.887200  0.234540  1.0  -0.3503
  N  N279  1  0.840500  0.968600  0.191660  1.0  -0.3665
  N  N280  1  0.872500  0.170000  0.239820  1.0  -0.5622
  N  N281  1  0.362170  0.356930  0.487830  1.0  -0.549
  N  N282  1  0.221270  0.220530  0.567870  1.0  -0.3519
  N  N283  1  0.507170  0.301930  0.524990  1.0  -0.3759
  N  N284  1  0.539170  0.503330  0.573150  1.0  -0.5621
  N  N285  1  0.028830  0.690270  0.821170  1.0  -0.5492
  N  N286  1  0.887930  0.553870  0.901210  1.0  -0.3538
  N  N287  1  0.173830  0.635270  0.858330  1.0  -0.3666
  N  N288  1  0.205830  0.836670  0.906490  1.0  -0.5622
  N  N289  1  0.671900  0.976400  0.345500  1.0  -0.5497
  N  N290  1  0.667400  0.112800  0.265460  1.0  -0.3552
  N  N291  1  0.871900  0.031400  0.308340  1.0  -0.379
  N  N292  1  0.702500  0.830000  0.260180  1.0  -0.5601
  N  N293  1  0.338570  0.309730  0.678830  1.0  -0.5497
  N  N294  1  0.334070  0.446130  0.598790  1.0  -0.3526
  N  N295  1  0.538570  0.364730  0.641670  1.0  -0.379
  N  N296  1  0.369170  0.163330  0.593510  1.0  -0.5601
  N  N297  1  0.005230  0.643070  0.012170  1.0  -0.5496
  N  N298  1  0.000730  0.779470  0.932130  1.0  -0.3548
  N  N299  1  0.205230  0.698070  0.975010  1.0  -0.3685
  N  N300  1  0.035830  0.496670  0.926850  1.0  -0.5601
  N  N301  1  0.304500  0.328100  0.345500  1.0  -0.5522
  N  N302  1  0.445400  0.332600  0.265460  1.0  -0.3566
  N  N303  1  0.159500  0.128100  0.308340  1.0  -0.3661
  N  N304  1  0.127500  0.297500  0.260180  1.0  -0.5594
  N  N305  1  0.971170  0.661430  0.678830  1.0  -0.5522
  N  N306  1  0.112070  0.665930  0.598790  1.0  -0.3582
  N  N307  1  0.826170  0.461430  0.641670  1.0  -0.3661
  N  N308  1  0.794170  0.630830  0.593510  1.0  -0.5594
  N  N309  1  0.637830  0.994770  0.012170  1.0  -0.5521
  N  N310  1  0.778730  0.999270  0.932130  1.0  -0.3549
  N  N311  1  0.492830  0.794770  0.975010  1.0  -0.3656
  N  N312  1  0.460830  0.964170  0.926850  1.0  -0.5595
  N  N313  1  0.023600  0.695500  0.345500  1.0  -0.5502
  N  N314  1  0.887200  0.554600  0.265460  1.0  -0.3505
  N  N315  1  0.968600  0.840500  0.308340  1.0  -0.367
  N  N316  1  0.170000  0.872500  0.260180  1.0  -0.5649
  N  N317  1  0.690270  0.028830  0.678830  1.0  -0.5502
  N  N318  1  0.553870  0.887930  0.598790  1.0  -0.3543
  N  N319  1  0.635270  0.173830  0.641670  1.0  -0.367
  N  N320  1  0.836670  0.205830  0.593510  1.0  -0.5649
  N  N321  1  0.356930  0.362170  0.012170  1.0  -0.5501
  N  N322  1  0.220530  0.221270  0.932130  1.0  -0.3519
  N  N323  1  0.301930  0.507170  0.975010  1.0  -0.3771
  N  N324  1  0.503330  0.539170  0.926850  1.0  -0.5648
