# generated using pymatgen
data_ZnH6(CN2)4
_symmetry_space_group_name_H-M   'P 1'
_cell_length_a   10.20400000
_cell_length_b   10.20400000
_cell_length_c   13.09980000
_cell_angle_alpha   90.00000000
_cell_angle_beta   90.00000000
_cell_angle_gamma   90.00000000
_symmetry_Int_Tables_number   1
_chemical_formula_structural   ZnH6(CN2)4
_chemical_formula_sum   'Zn4 H24 C16 N32'
_cell_volume   1363.97234528
_cell_formula_units_Z   4
loop_
 _symmetry_equiv_pos_site_id
 _symmetry_equiv_pos_as_xyz
  1  'x, y, z'
loop_
 _atom_site_type_symbol
 _atom_site_label
 _atom_site_symmetry_multiplicity
 _atom_site_fract_x
 _atom_site_fract_y
 _atom_site_fract_z
 _atom_site_occupancy
 _atom_site_charge
  Zn  Zn1  1  0.730310  0.730310  0.500000  1.0  0.8354
  Zn  Zn2  1  0.269690  0.269690  0.000000  1.0  0.8349
  Zn  Zn3  1  0.769690  0.230310  0.750000  1.0  0.8348
  Zn  Zn4  1  0.230310  0.769690  0.250000  1.0  0.8355
  H  H5  1  0.621500  0.453200  0.447600  1.0  0.0854
  H  H6  1  0.869100  0.511500  0.766500  1.0  0.3499
  H  H7  1  0.857900  0.636200  0.708100  1.0  0.3193
  H  H8  1  0.378500  0.546800  0.947600  1.0  0.0854
  H  H9  1  0.130900  0.488500  0.266500  1.0  0.3496
  H  H10  1  0.142100  0.363800  0.208100  1.0  0.32
  H  H11  1  0.046800  0.121500  0.697600  1.0  0.0853
  H  H12  1  0.988500  0.369100  0.016500  1.0  0.3501
  H  H13  1  0.863800  0.357900  0.958100  1.0  0.3184
  H  H14  1  0.953200  0.878500  0.197600  1.0  0.0846
  H  H15  1  0.011500  0.630900  0.516500  1.0  0.35
  H  H16  1  0.136200  0.642100  0.458100  1.0  0.318
  H  H17  1  0.878500  0.953200  0.802400  1.0  0.086
  H  H18  1  0.630900  0.011500  0.483500  1.0  0.349
  H  H19  1  0.642100  0.136200  0.541900  1.0  0.3191
  H  H20  1  0.121500  0.046800  0.302400  1.0  0.0854
  H  H21  1  0.369100  0.988500  0.983500  1.0  0.3488
  H  H22  1  0.357900  0.863800  0.041900  1.0  0.319
  H  H23  1  0.453200  0.621500  0.552400  1.0  0.0854
  H  H24  1  0.511500  0.869100  0.233500  1.0  0.3495
  H  H25  1  0.636200  0.857900  0.291900  1.0  0.3176
  H  H26  1  0.546800  0.378500  0.052400  1.0  0.0846
  H  H27  1  0.488500  0.130900  0.733500  1.0  0.349
  H  H28  1  0.363800  0.142100  0.791900  1.0  0.3176
  C  C29  1  0.771300  0.491000  0.640200  1.0  0.6556
  C  C30  1  0.664900  0.446000  0.509800  1.0  0.2462
  C  C31  1  0.228700  0.509000  0.140200  1.0  0.6554
  C  C32  1  0.335100  0.554000  0.009800  1.0  0.2459
  C  C33  1  0.009000  0.271300  0.890200  1.0  0.6551
  C  C34  1  0.054000  0.164900  0.759800  1.0  0.2476
  C  C35  1  0.991000  0.728700  0.390200  1.0  0.6556
  C  C36  1  0.946000  0.835100  0.259800  1.0  0.2478
  C  C37  1  0.728700  0.991000  0.609800  1.0  0.6553
  C  C38  1  0.835100  0.946000  0.740200  1.0  0.2445
  C  C39  1  0.271300  0.009000  0.109800  1.0  0.6554
  C  C40  1  0.164900  0.054000  0.240200  1.0  0.2447
  C  C41  1  0.491000  0.771300  0.359800  1.0  0.6555
  C  C42  1  0.446000  0.664900  0.490200  1.0  0.2471
  C  C43  1  0.509000  0.228700  0.859800  1.0  0.655
  C  C44  1  0.554000  0.335100  0.990200  1.0  0.2458
  N  N45  1  0.725900  0.548000  0.557700  1.0  -0.5663
  N  N46  1  0.747400  0.366700  0.650400  1.0  -0.3996
  N  N47  1  0.674300  0.337000  0.560900  1.0  -0.3336
  N  N48  1  0.841400  0.554000  0.714100  1.0  -0.7742
  N  N49  1  0.274100  0.452000  0.057700  1.0  -0.5673
  N  N50  1  0.252600  0.633300  0.150400  1.0  -0.4
  N  N51  1  0.325700  0.663000  0.060900  1.0  -0.3325
  N  N52  1  0.158600  0.446000  0.214100  1.0  -0.7742
  N  N53  1  0.952000  0.225900  0.807700  1.0  -0.5683
  N  N54  1  0.133300  0.247400  0.900400  1.0  -0.3993
  N  N55  1  0.163000  0.174300  0.810900  1.0  -0.3342
  N  N56  1  0.946000  0.341400  0.964100  1.0  -0.7766
  N  N57  1  0.048000  0.774100  0.307700  1.0  -0.5676
  N  N58  1  0.866700  0.752600  0.400400  1.0  -0.4
  N  N59  1  0.837000  0.825700  0.310900  1.0  -0.3318
  N  N60  1  0.054000  0.658600  0.464100  1.0  -0.7744
  N  N61  1  0.774100  0.048000  0.692300  1.0  -0.5664
  N  N62  1  0.752600  0.866700  0.599600  1.0  -0.3991
  N  N63  1  0.825700  0.837000  0.689100  1.0  -0.3281
  N  N64  1  0.658600  0.054000  0.535900  1.0  -0.7742
  N  N65  1  0.225900  0.952000  0.192300  1.0  -0.5669
  N  N66  1  0.247400  0.133300  0.099600  1.0  -0.4001
  N  N67  1  0.174300  0.163000  0.189100  1.0  -0.3292
  N  N68  1  0.341400  0.946000  0.035900  1.0  -0.774
  N  N69  1  0.548000  0.725900  0.442300  1.0  -0.5674
  N  N70  1  0.366700  0.747400  0.349600  1.0  -0.3997
  N  N71  1  0.337000  0.674300  0.439100  1.0  -0.3288
  N  N72  1  0.554000  0.841400  0.285900  1.0  -0.7754
  N  N73  1  0.452000  0.274100  0.942300  1.0  -0.5679
  N  N74  1  0.633300  0.252600  0.849600  1.0  -0.3994
  N  N75  1  0.663000  0.325700  0.939100  1.0  -0.3286
  N  N76  1  0.446000  0.158600  0.785900  1.0  -0.7749
