# generated using pymatgen
data_Cd4Ag8H55(C8N3)8
_symmetry_space_group_name_H-M   'P 1'
_cell_length_a   14.00100000
_cell_length_b   19.98460000
_cell_length_c   19.98460000
_cell_angle_alpha   81.12090000
_cell_angle_beta   69.49470000
_cell_angle_gamma   69.49470000
_symmetry_Int_Tables_number   1
_chemical_formula_structural   Cd4Ag8H55(C8N3)8
_chemical_formula_sum   'Cd8 Ag16 H110 C128 N48'
_cell_volume   4902.44216416
_cell_formula_units_Z   2
loop_
 _symmetry_equiv_pos_site_id
 _symmetry_equiv_pos_as_xyz
  1  'x, y, z'
loop_
 _atom_site_type_symbol
 _atom_site_label
 _atom_site_symmetry_multiplicity
 _atom_site_fract_x
 _atom_site_fract_y
 _atom_site_fract_z
 _atom_site_occupancy
 _atom_site_charge
  Cd  Cd1  1  0.991940  0.756150  0.019750  1.0  0.8641
  Cd  Cd2  1  0.267840  0.743850  0.480250  1.0  0.8651
  Cd  Cd3  1  0.767840  0.480250  0.743850  1.0  0.8635
  Cd  Cd4  1  0.491940  0.019750  0.756150  1.0  0.8663
  Cd  Cd5  1  0.232160  0.519750  0.256150  1.0  0.9009
  Cd  Cd6  1  0.508060  0.980250  0.243850  1.0  0.8679
  Cd  Cd7  1  0.008060  0.243850  0.980250  1.0  0.9008
  Cd  Cd8  1  0.732160  0.256150  0.519750  1.0  0.9009
  Ag  Ag9  1  0.381040  0.688920  0.807420  1.0  0.3709
  Ag  Ag10  1  0.639810  0.726630  0.249210  1.0  0.3105
  Ag  Ag11  1  0.377380  0.811080  0.692580  1.0  0.3305
  Ag  Ag12  1  0.115650  0.773370  0.250790  1.0  0.313
  Ag  Ag13  1  0.877380  0.692580  0.811080  1.0  0.3705
  Ag  Ag14  1  0.615650  0.250790  0.773370  1.0  0.3088
  Ag  Ag15  1  0.881040  0.807420  0.688920  1.0  0.3472
  Ag  Ag16  1  0.139810  0.249210  0.726630  1.0  0.3155
  Ag  Ag17  1  0.122620  0.307420  0.188920  1.0  0.3441
  Ag  Ag18  1  0.384350  0.749210  0.226630  1.0  0.3108
  Ag  Ag19  1  0.118960  0.192580  0.311080  1.0  0.3573
  Ag  Ag20  1  0.860190  0.750790  0.273370  1.0  0.3122
  Ag  Ag21  1  0.618960  0.311080  0.192580  1.0  0.3452
  Ag  Ag22  1  0.360190  0.273370  0.750790  1.0  0.3098
  Ag  Ag23  1  0.622620  0.188920  0.307420  1.0  0.3231
  Ag  Ag24  1  0.884350  0.226630  0.749210  1.0  0.3112
  H  H25  1  0.103410  0.639590  0.902700  1.0  0.0867
  H  H26  1  0.170440  0.503970  0.890570  1.0  0.0962
  H  H27  1  0.079870  0.482500  0.125000  1.0  0.0955
  H  H28  1  0.013220  0.617100  0.128770  1.0  0.0866
  H  H29  1  0.167130  0.388850  0.949870  1.0  0.1146
  H  H30  1  0.130590  0.376740  0.048890  1.0  0.1163
  H  H31  1  0.266360  0.382320  0.994830  1.0  0.1202
  H  H32  1  0.856140  0.875590  0.130770  1.0  0.0788
  H  H33  1  0.776150  0.008690  0.141560  1.0  0.1003
  H  H34  1  0.925990  0.021690  0.905940  1.0  0.097
  H  H35  1  0.000910  0.890680  0.905800  1.0  0.0892
  H  H36  1  0.715620  0.127280  0.068600  1.0  0.1228
  H  H37  1  0.769340  0.128010  0.969180  1.0  0.1184
  H  H38  1  0.851920  0.135400  0.021490  1.0  0.1151
  H  H39  1  0.145700  0.860410  0.597300  1.0  0.0924
  H  H40  1  0.064980  0.996030  0.609430  1.0  0.0897
  H  H41  1  0.187370  0.017500  0.375000  1.0  0.0934
  H  H42  1  0.259090  0.882900  0.371230  1.0  0.0865
  H  H43  1  0.010490  0.110890  0.552660  1.0  0.124
  H  H44  1  0.049340  0.122910  0.453570  1.0  0.1182
  H  H45  1  0.145760  0.118280  0.500170  1.0  0.1126
  H  H46  1  0.362500  0.624410  0.369230  1.0  0.0778
  H  H47  1  0.426400  0.491310  0.358440  1.0  0.1011
  H  H48  1  0.353620  0.478310  0.594060  1.0  0.0909
  H  H49  1  0.297400  0.609320  0.594200  1.0  0.0878
  H  H50  1  0.403800  0.373110  0.434480  1.0  0.1141
  H  H51  1  0.372120  0.371540  0.533170  1.0  0.1182
  H  H52  1  0.510910  0.364660  0.473080  1.0  0.1162
  H  H53  1  0.645700  0.597300  0.860410  1.0  0.0894
  H  H54  1  0.564980  0.609430  0.996030  1.0  0.0966
  H  H55  1  0.687370  0.375000  0.017500  1.0  0.0967
  H  H56  1  0.759090  0.371230  0.882900  1.0  0.0872
  H  H57  1  0.556840  0.450910  0.123290  1.0  0.1155
  H  H58  1  0.505460  0.549880  0.111180  1.0  0.1194
  H  H59  1  0.643280  0.505620  0.117620  1.0  0.119
  H  H60  1  0.862500  0.369230  0.624410  1.0  0.0792
  H  H61  1  0.926400  0.358440  0.491310  1.0  0.1035
  H  H62  1  0.853620  0.594060  0.478310  1.0  0.1002
  H  H63  1  0.797400  0.594200  0.609320  1.0  0.0908
  H  H64  1  0.867570  0.531310  0.371910  1.0  0.122
  H  H65  1  0.909990  0.431960  0.372790  1.0  0.1225
  H  H66  1  0.009270  0.477460  0.364610  1.0  0.1147
  H  H67  1  0.603410  0.902700  0.639590  1.0  0.089
  H  H68  1  0.670440  0.890570  0.503970  1.0  0.101
  H  H69  1  0.579870  0.125000  0.482500  1.0  0.1001
  H  H70  1  0.513220  0.128770  0.617100  1.0  0.0883
  H  H71  1  0.623410  0.995070  0.373420  1.0  0.1363
  H  H72  1  0.763260  0.998930  0.371690  1.0  0.1261
  H  H73  1  0.356140  0.130770  0.875590  1.0  0.0795
  H  H74  1  0.276150  0.141560  0.008690  1.0  0.1004
  H  H75  1  0.425990  0.905940  0.021690  1.0  0.0922
  H  H76  1  0.500910  0.905800  0.890680  1.0  0.0892
  H  H77  1  0.279390  0.966140  0.128620  1.0  0.1178
  H  H78  1  0.210080  0.064380  0.126770  1.0  0.1153
  H  H79  1  0.347400  0.028750  0.135310  1.0  0.1091
  H  H80  1  0.354300  0.402700  0.139590  1.0  0.0927
  H  H81  1  0.435020  0.390570  0.003970  1.0  0.0978
  H  H82  1  0.312630  0.625000  0.982500  1.0  0.0948
  H  H83  1  0.240910  0.628770  0.117100  1.0  0.0864
  H  H84  1  0.368400  0.545610  0.876450  1.0  0.1237
  H  H85  1  0.419780  0.446640  0.888560  1.0  0.1211
  H  H86  1  0.506220  0.501350  0.882900  1.0  0.1117
  H  H87  1  0.137500  0.630770  0.375590  1.0  0.0822
  H  H88  1  0.073600  0.641560  0.508690  1.0  0.1
  H  H89  1  0.146380  0.405940  0.521690  1.0  0.0989
  H  H90  1  0.202600  0.405800  0.390680  1.0  0.0881
  H  H91  1  0.052100  0.471470  0.633260  1.0  0.1134
  H  H92  1  0.009680  0.570830  0.632370  1.0  0.1122
  H  H93  1  0.151380  0.516970  0.625070  1.0  0.1252
  H  H94  1  0.396590  0.097300  0.360410  1.0  0.0905
  H  H95  1  0.329560  0.109430  0.496030  1.0  0.0855
  H  H96  1  0.420130  0.875000  0.517500  1.0  0.0986
  H  H97  1  0.486780  0.871230  0.382900  1.0  0.0868
  H  H98  1  0.236740  0.001070  0.628310  1.0  0.123
  H  H99  1  0.376590  0.004930  0.626580  1.0  0.1324
  H  H100  1  0.643860  0.869230  0.124410  1.0  0.0818
  H  H101  1  0.723850  0.858440  0.991310  1.0  0.0974
  H  H102  1  0.574010  0.094060  0.978310  1.0  0.1024
  H  H103  1  0.499090  0.094200  0.109320  1.0  0.0938
  H  H104  1  0.652170  0.024870  0.866300  1.0  0.115
  H  H105  1  0.721480  0.926630  0.868160  1.0  0.114
  H  H106  1  0.789480  0.989240  0.874850  1.0  0.1154
  H  H107  1  0.896590  0.360410  0.097300  1.0  0.0953
  H  H108  1  0.829560  0.496030  0.109430  1.0  0.0927
  H  H109  1  0.754540  0.611460  0.053160  1.0  0.1201
  H  H110  1  0.791080  0.623580  0.954140  1.0  0.1201
  H  H111  1  0.143860  0.124410  0.869230  1.0  0.0818
  H  H112  1  0.223850  0.991310  0.858440  1.0  0.0993
  H  H113  1  0.074010  0.978310  0.094060  1.0  0.098
  H  H114  1  0.999090  0.109320  0.094200  1.0  0.0901
  H  H115  1  0.211420  0.867540  0.929670  1.0  0.1068
  H  H116  1  0.157700  0.866820  0.029090  1.0  0.1168
  H  H117  1  0.294000  0.874940  0.981980  1.0  0.1214
  H  H118  1  0.854300  0.139590  0.402700  1.0  0.0908
  H  H119  1  0.935020  0.003970  0.390570  1.0  0.0942
  H  H120  1  0.812630  0.982500  0.625000  1.0  0.0965
  H  H121  1  0.740910  0.117100  0.628770  1.0  0.0848
  H  H122  1  0.912280  0.888180  0.449300  1.0  0.1197
  H  H123  1  0.873430  0.876170  0.548400  1.0  0.1232
  H  H124  1  0.008700  0.883560  0.495900  1.0  0.105
  H  H125  1  0.637500  0.375590  0.630770  1.0  0.0813
  H  H126  1  0.573600  0.508690  0.641560  1.0  0.1025
  H  H127  1  0.646380  0.521690  0.405940  1.0  0.0997
  H  H128  1  0.702600  0.390680  0.405800  1.0  0.0925
  H  H129  1  0.514230  0.632000  0.572680  1.0  0.1129
  H  H130  1  0.545910  0.633570  0.473990  1.0  0.1109
  H  H131  1  0.653020  0.625120  0.512600  1.0  0.1147
  H  H132  1  0.920130  0.517500  0.875000  1.0  0.0945
  H  H133  1  0.986780  0.382900  0.871230  1.0  0.0847
  H  H134  1  0.890300  0.617050  0.999100  1.0  0.1092
  C  C135  1  0.530700  0.619500  0.753900  1.0  -0.0165
  C  C136  1  0.764300  0.732100  0.155900  1.0  0.0487
  C  C137  1  0.511600  0.731200  0.344400  1.0  -0.0797
  C  C138  1  0.229700  0.737700  0.878300  1.0  0.0487
  C  C139  1  0.098600  0.602700  0.952500  1.0  0.2837
  C  C140  1  0.137500  0.527500  0.945700  1.0  -0.1687
  C  C141  1  0.134500  0.484200  0.006600  1.0  -0.0252
  C  C142  1  0.087100  0.516900  0.073500  1.0  -0.129
  C  C143  1  0.050400  0.589900  0.075300  1.0  0.1691
  C  C144  1  0.177400  0.402800  0.999600  1.0  -0.4354
  C  C145  1  0.869100  0.912200  0.081000  1.0  0.1514
  C  C146  1  0.824500  0.984800  0.086800  1.0  -0.1284
  C  C147  1  0.840700  0.028200  0.023000  1.0  -0.0106
  C  C148  1  0.906600  0.990800  0.959200  1.0  -0.1365
  C  C149  1  0.948800  0.918200  0.958400  1.0  0.1369
  C  C150  1  0.791200  0.110000  0.020400  1.0  -0.4769
  C  C151  1  0.404100  0.880500  0.746100  1.0  -0.0262
  C  C152  1  0.152300  0.767900  0.344100  1.0  0.0434
  C  C153  1  0.087200  0.768800  0.155600  1.0  -0.0634
  C  C154  1  0.345700  0.762300  0.621700  1.0  0.0366
  C  C155  1  0.153800  0.897300  0.547500  1.0  0.3046
  C  C156  1  0.110700  0.972500  0.554300  1.0  -0.1676
  C  C157  1  0.125300  0.015800  0.493400  1.0  -0.0245
  C  C158  1  0.177500  0.983100  0.426500  1.0  -0.1294
  C  C159  1  0.215600  0.910100  0.424700  1.0  0.1684
  C  C160  1  0.079800  0.097200  0.500400  1.0  -0.4163
  C  C161  1  0.362300  0.587800  0.419000  1.0  0.1491
  C  C162  1  0.396100  0.515200  0.413200  1.0  -0.1308
  C  C163  1  0.391900  0.471800  0.477000  1.0  -0.0109
  C  C164  1  0.356600  0.509200  0.540800  1.0  -0.1278
  C  C165  1  0.325400  0.581800  0.541600  1.0  0.1398
  C  C166  1  0.421600  0.390000  0.479600  1.0  -0.4809
  C  C167  1  0.904100  0.746100  0.880500  1.0  -0.0136
  C  C168  1  0.652300  0.344100  0.767900  1.0  0.049
  C  C169  1  0.587200  0.155600  0.768800  1.0  -0.0755
  C  C170  1  0.845700  0.621700  0.762300  1.0  0.048
  C  C171  1  0.653800  0.547500  0.897300  1.0  0.2818
  C  C172  1  0.610700  0.554300  0.972500  1.0  -0.1767
  C  C173  1  0.625300  0.493400  0.015800  1.0  -0.0232
  C  C174  1  0.677500  0.426500  0.983100  1.0  -0.137
  C  C175  1  0.715600  0.424700  0.910100  1.0  0.1643
  C  C176  1  0.579800  0.500400  0.097200  1.0  -0.4363
  C  C177  1  0.862300  0.419000  0.587800  1.0  0.1482
  C  C178  1  0.896100  0.413200  0.515200  1.0  -0.1353
  C  C179  1  0.891900  0.477000  0.471800  1.0  -0.0089
  C  C180  1  0.856600  0.540800  0.509200  1.0  -0.1355
  C  C181  1  0.825400  0.541600  0.581800  1.0  0.1361
  C  C182  1  0.921600  0.479600  0.390000  1.0  -0.4788
  C  C183  1  0.030700  0.753900  0.619500  1.0  -0.0138
  C  C184  1  0.264300  0.155900  0.732100  1.0  0.0453
  C  C185  1  0.011600  0.344400  0.731200  1.0  -0.0616
  C  C186  1  0.729700  0.878300  0.737700  1.0  0.0416
  C  C187  1  0.598600  0.952500  0.602700  1.0  0.3237
  C  C188  1  0.637500  0.945700  0.527500  1.0  -0.1618
  C  C189  1  0.634500  0.006600  0.484200  1.0  -0.0954
  C  C190  1  0.587100  0.073500  0.516900  1.0  -0.1325
  C  C191  1  0.550400  0.075300  0.589900  1.0  0.1827
  C  C192  1  0.677400  0.999600  0.402800  1.0  0.5412
  C  C193  1  0.369100  0.081000  0.912200  1.0  0.1474
  C  C194  1  0.324500  0.086800  0.984800  1.0  -0.1378
  C  C195  1  0.340700  0.023000  0.028200  1.0  -0.0108
  C  C196  1  0.406600  0.959200  0.990800  1.0  -0.1365
  C  C197  1  0.448800  0.958400  0.918200  1.0  0.1458
  C  C198  1  0.291200  0.020400  0.110000  1.0  -0.4808
  C  C199  1  0.095900  0.253900  0.119500  1.0  -0.0107
  C  C200  1  0.347700  0.655900  0.232100  1.0  0.0406
  C  C201  1  0.412800  0.844400  0.231200  1.0  -0.0407
  C  C202  1  0.154300  0.378300  0.237700  1.0  0.0017
  C  C203  1  0.346200  0.452500  0.102700  1.0  0.3188
  C  C204  1  0.389300  0.445700  0.027500  1.0  -0.1641
  C  C205  1  0.374700  0.506600  0.984200  1.0  -0.0128
  C  C206  1  0.322500  0.573500  0.016900  1.0  -0.1381
  C  C207  1  0.284400  0.575300  0.089900  1.0  0.1721
  C  C208  1  0.420200  0.499600  0.902800  1.0  -0.4408
  C  C209  1  0.137700  0.581000  0.412200  1.0  0.1496
  C  C210  1  0.103900  0.586800  0.484800  1.0  -0.1373
  C  C211  1  0.108100  0.523000  0.528200  1.0  -0.0148
  C  C212  1  0.143400  0.459200  0.490800  1.0  -0.1326
  C  C213  1  0.174600  0.458400  0.418200  1.0  0.1522
  C  C214  1  0.078400  0.520400  0.610000  1.0  -0.4861
  C  C215  1  0.969300  0.246100  0.380500  1.0  -0.0129
  C  C216  1  0.735700  0.844100  0.267900  1.0  0.0414
  C  C217  1  0.988400  0.655600  0.268800  1.0  -0.0337
  C  C218  1  0.270300  0.121700  0.262300  1.0  0.0027
  C  C219  1  0.401400  0.047500  0.397300  1.0  0.3212
  C  C220  1  0.362500  0.054300  0.472500  1.0  -0.1503
  C  C221  1  0.365500  0.993400  0.515800  1.0  -0.094
  C  C222  1  0.412900  0.926500  0.483100  1.0  -0.1336
  C  C223  1  0.449600  0.924700  0.410100  1.0  0.1837
  C  C224  1  0.322600  0.000400  0.597200  1.0  0.5408
  C  C225  1  0.630900  0.919000  0.087800  1.0  0.1515
  C  C226  1  0.675500  0.913200  0.015200  1.0  -0.1344
  C  C227  1  0.659300  0.977000  0.971800  1.0  -0.0153
  C  C228  1  0.593400  0.040800  0.009200  1.0  -0.1582
  C  C229  1  0.551200  0.041600  0.081800  1.0  0.1574
  C  C230  1  0.708800  0.979600  0.890000  1.0  -0.481
  C  C231  1  0.469300  0.380500  0.246100  1.0  -0.009
  C  C232  1  0.235700  0.267900  0.844100  1.0  0.0413
  C  C233  1  0.488400  0.268800  0.655600  1.0  -0.0415
  C  C234  1  0.770300  0.262300  0.121700  1.0  -0.0003
  C  C235  1  0.901400  0.397300  0.047500  1.0  0.3208
  C  C236  1  0.862500  0.472500  0.054300  1.0  -0.1584
  C  C237  1  0.865500  0.515800  0.993400  1.0  -0.0144
  C  C238  1  0.912900  0.483100  0.926500  1.0  -0.132
  C  C239  1  0.949600  0.410100  0.924700  1.0  0.173
  C  C240  1  0.822600  0.597200  0.000400  1.0  -0.4375
  C  C241  1  0.130900  0.087800  0.919000  1.0  0.1522
  C  C242  1  0.175500  0.015200  0.913200  1.0  -0.1296
  C  C243  1  0.159300  0.971800  0.977000  1.0  -0.017
  C  C244  1  0.093400  0.009200  0.040800  1.0  -0.1275
  C  C245  1  0.051200  0.081800  0.041600  1.0  0.1546
  C  C246  1  0.208800  0.890000  0.979600  1.0  -0.4855
  C  C247  1  0.595900  0.119500  0.253900  1.0  -0.0242
  C  C248  1  0.847700  0.232100  0.655900  1.0  0.0344
  C  C249  1  0.912800  0.231200  0.844400  1.0  -0.038
  C  C250  1  0.654300  0.237700  0.378300  1.0  0.0042
  C  C251  1  0.846200  0.102700  0.452500  1.0  0.33
  C  C252  1  0.889300  0.027500  0.445700  1.0  -0.1713
  C  C253  1  0.874700  0.984200  0.506600  1.0  -0.0228
  C  C254  1  0.822500  0.016900  0.573500  1.0  -0.1231
  C  C255  1  0.784400  0.089900  0.575300  1.0  0.1838
  C  C256  1  0.920200  0.902800  0.499600  1.0  -0.4195
  C  C257  1  0.637700  0.412200  0.581000  1.0  0.1532
  C  C258  1  0.603900  0.484800  0.586800  1.0  -0.1293
  C  C259  1  0.608100  0.528200  0.523000  1.0  -0.0172
  C  C260  1  0.643400  0.490800  0.459200  1.0  -0.1544
  C  C261  1  0.674600  0.418200  0.458400  1.0  0.1641
  C  C262  1  0.578400  0.610000  0.520400  1.0  -0.4828
  N  N263  1  0.608200  0.575800  0.736200  1.0  -0.4006
  N  N264  1  0.831700  0.739800  0.106400  1.0  -0.428
  N  N265  1  0.435100  0.739200  0.393400  1.0  -0.4723
  N  N266  1  0.152700  0.755400  0.922200  1.0  -0.4239
  N  N267  1  0.056700  0.632400  0.014200  1.0  -0.3649
  N  N268  1  0.929100  0.878500  0.019900  1.0  -0.3688
  N  N269  1  0.420200  0.924200  0.763800  1.0  -0.3922
  N  N270  1  0.177900  0.760200  0.393600  1.0  -0.4303
  N  N271  1  0.067700  0.760800  0.106600  1.0  -0.4704
  N  N272  1  0.330300  0.744600  0.577800  1.0  -0.4457
  N  N273  1  0.203300  0.867600  0.485800  1.0  -0.3644
  N  N274  1  0.327500  0.621500  0.480100  1.0  -0.387
  N  N275  1  0.920200  0.763800  0.924200  1.0  -0.4094
  N  N276  1  0.677900  0.393600  0.760200  1.0  -0.4291
  N  N277  1  0.567700  0.106600  0.760800  1.0  -0.464
  N  N278  1  0.830300  0.577800  0.744600  1.0  -0.4212
  N  N279  1  0.703300  0.485800  0.867600  1.0  -0.366
  N  N280  1  0.827500  0.480100  0.621500  1.0  -0.3739
  N  N281  1  0.108200  0.736200  0.575800  1.0  -0.3972
  N  N282  1  0.331700  0.106400  0.739800  1.0  -0.4374
  N  N283  1  0.935100  0.393400  0.739200  1.0  -0.4689
  N  N284  1  0.652700  0.922200  0.755400  1.0  -0.4248
  N  N285  1  0.556700  0.014200  0.632400  1.0  -0.3654
  N  N286  1  0.429100  0.019900  0.878500  1.0  -0.3867
  N  N287  1  0.079800  0.236200  0.075800  1.0  -0.3991
  N  N288  1  0.322100  0.606400  0.239800  1.0  -0.4376
  N  N289  1  0.432300  0.893400  0.239200  1.0  -0.4391
  N  N290  1  0.169700  0.422200  0.255400  1.0  -0.4038
  N  N291  1  0.296700  0.514200  0.132400  1.0  -0.3625
  N  N292  1  0.172500  0.519900  0.378500  1.0  -0.3775
  N  N293  1  0.891800  0.263800  0.424200  1.0  -0.3882
  N  N294  1  0.668300  0.893600  0.260200  1.0  -0.4366
  N  N295  1  0.064900  0.606600  0.260800  1.0  -0.4324
  N  N296  1  0.347300  0.077800  0.244600  1.0  -0.4054
  N  N297  1  0.443300  0.985800  0.367600  1.0  -0.3658
  N  N298  1  0.570900  0.980100  0.121500  1.0  -0.377
  N  N299  1  0.391800  0.424200  0.263800  1.0  -0.3934
  N  N300  1  0.168300  0.260200  0.893600  1.0  -0.436
  N  N301  1  0.564900  0.260800  0.606600  1.0  -0.4391
  N  N302  1  0.847300  0.244600  0.077800  1.0  -0.4073
  N  N303  1  0.943300  0.367600  0.985800  1.0  -0.3621
  N  N304  1  0.070900  0.121500  0.980100  1.0  -0.374
  N  N305  1  0.579800  0.075800  0.236200  1.0  -0.3976
  N  N306  1  0.822100  0.239800  0.606400  1.0  -0.4302
  N  N307  1  0.932300  0.239200  0.893400  1.0  -0.4316
  N  N308  1  0.669700  0.255400  0.422200  1.0  -0.4066
  N  N309  1  0.796700  0.132400  0.514200  1.0  -0.3643
  N  N310  1  0.672500  0.378500  0.519900  1.0  -0.3738
