# generated using pymatgen
data_Ag2H9(C2O)6
_symmetry_space_group_name_H-M   'P 1'
_cell_length_a   4.71430000
_cell_length_b   11.73440000
_cell_length_c   13.68230000
_cell_angle_alpha   67.66600000
_cell_angle_beta   89.26900000
_cell_angle_gamma   82.09600000
_symmetry_Int_Tables_number   1
_chemical_formula_structural   Ag2H9(C2O)6
_chemical_formula_sum   'Ag4 H18 C24 O12'
_cell_volume   692.82265826
_cell_formula_units_Z   2
loop_
 _symmetry_equiv_pos_site_id
 _symmetry_equiv_pos_as_xyz
  1  'x, y, z'
loop_
 _atom_site_type_symbol
 _atom_site_label
 _atom_site_symmetry_multiplicity
 _atom_site_fract_x
 _atom_site_fract_y
 _atom_site_fract_z
 _atom_site_occupancy
 _atom_site_charge
  Ag  Ag1  1  0.730200  0.950960  0.935770  1.0  0.5126
  Ag  Ag2  1  0.325990  0.129730  0.782310  1.0  0.5848
  Ag  Ag3  1  0.269800  0.049040  0.064230  1.0  0.5133
  Ag  Ag4  1  0.674010  0.870270  0.217690  1.0  0.5846
  H  H5  1  0.438600  0.521100  0.906900  1.0  0.1116
  H  H6  1  0.549900  0.790500  0.625200  1.0  0.1267
  H  H7  1  0.071900  0.460600  0.721600  1.0  0.1283
  H  H8  1  0.072200  0.323300  0.913000  1.0  0.1532
  H  H9  1  0.798100  0.338600  0.979100  1.0  0.1435
  H  H10  1  0.104200  0.803200  0.720400  1.0  0.1353
  H  H11  1  0.092200  0.708800  0.840300  1.0  0.144
  H  H12  1  0.007100  0.770300  0.538500  1.0  0.1526
  H  H13  1  0.191600  0.635800  0.569600  1.0  0.1602
  H  H14  1  0.561400  0.478900  0.093100  1.0  0.1117
  H  H15  1  0.450100  0.209500  0.374800  1.0  0.127
  H  H16  1  0.928100  0.539400  0.278400  1.0  0.1274
  H  H17  1  0.927800  0.676700  0.087000  1.0  0.1546
  H  H18  1  0.201900  0.661400  0.020900  1.0  0.1435
  H  H19  1  0.895800  0.196800  0.279600  1.0  0.1354
  H  H20  1  0.907800  0.291200  0.159700  1.0  0.1479
  H  H21  1  0.992900  0.229700  0.461500  1.0  0.1505
  H  H22  1  0.808400  0.364200  0.430400  1.0  0.1597
  C  C23  1  0.769700  0.471000  0.827800  1.0  0.1518
  C  C24  1  0.541000  0.549800  0.843900  1.0  -0.2109
  C  C25  1  0.460000  0.669600  0.769600  1.0  0.1669
  C  C26  1  0.606900  0.709200  0.676700  1.0  -0.2023
  C  C27  1  0.834100  0.633900  0.656900  1.0  0.1437
  C  C28  1  0.916100  0.513500  0.733600  1.0  -0.1523
  C  C29  1  0.860300  0.341000  0.909000  1.0  -0.3609
  C  C30  1  0.741600  0.238200  0.887200  1.0  0.7295
  C  C31  1  0.219100  0.757900  0.787400  1.0  -0.3706
  C  C32  1  0.321100  0.852500  0.825600  1.0  0.7434
  C  C33  1  0.993800  0.681200  0.556200  1.0  -0.376
  C  C34  1  0.862600  0.668300  0.460900  1.0  0.715
  C  C35  1  0.230300  0.529000  0.172200  1.0  0.1517
  C  C36  1  0.459000  0.450200  0.156100  1.0  -0.2045
  C  C37  1  0.540000  0.330400  0.230400  1.0  0.1656
  C  C38  1  0.393100  0.290800  0.323300  1.0  -0.1944
  C  C39  1  0.165900  0.366100  0.343100  1.0  0.1484
  C  C40  1  0.083900  0.486500  0.266400  1.0  -0.1551
  C  C41  1  0.139700  0.659000  0.091000  1.0  -0.3605
  C  C42  1  0.258400  0.761800  0.112800  1.0  0.7288
  C  C43  1  0.780900  0.242100  0.212600  1.0  -0.3699
  C  C44  1  0.678900  0.147500  0.174400  1.0  0.7393
  C  C45  1  0.006200  0.318800  0.443800  1.0  -0.3771
  C  C46  1  0.137400  0.331700  0.539100  1.0  0.7131
  O  O47  1  0.864600  0.128200  0.936800  1.0  -0.6046
  O  O48  1  0.529700  0.266900  0.824300  1.0  -0.5382
  O  O49  1  0.551900  0.821600  0.879900  1.0  -0.5389
  O  O50  1  0.157200  0.954900  0.801000  1.0  -0.588
  O  O51  1  0.966300  0.725200  0.372300  1.0  -0.6437
  O  O52  1  0.668400  0.601500  0.474200  1.0  -0.4204
  O  O53  1  0.135400  0.871800  0.063200  1.0  -0.6045
  O  O54  1  0.470300  0.733100  0.175700  1.0  -0.5458
  O  O55  1  0.448100  0.178400  0.120100  1.0  -0.5374
  O  O56  1  0.842800  0.045100  0.199000  1.0  -0.5859
  O  O57  1  0.033700  0.274800  0.627700  1.0  -0.6435
  O  O58  1  0.331600  0.398500  0.525800  1.0  -0.4201
