# generated using pymatgen
data_CdH6(C2O)4
_symmetry_space_group_name_H-M   'P 1'
_cell_length_a   8.13240000
_cell_length_b   11.34400000
_cell_length_c   39.26600000
_cell_angle_alpha   90.00000000
_cell_angle_beta   90.00000000
_cell_angle_gamma   102.90800000
_symmetry_Int_Tables_number   1
_chemical_formula_structural   CdH6(C2O)4
_chemical_formula_sum   'Cd12 H72 C96 O48'
_cell_volume   3530.90432993
_cell_formula_units_Z   12
loop_
 _symmetry_equiv_pos_site_id
 _symmetry_equiv_pos_as_xyz
  1  'x, y, z'
loop_
 _atom_site_type_symbol
 _atom_site_label
 _atom_site_symmetry_multiplicity
 _atom_site_fract_x
 _atom_site_fract_y
 _atom_site_fract_z
 _atom_site_occupancy
 _atom_site_charge
  Cd  Cd1  1  0.759280  0.481460  0.947870  1.0  1.0422
  Cd  Cd2  1  0.095040  0.595440  0.299490  1.0  1.0654
  Cd  Cd3  1  0.011260  0.809510  0.122390  1.0  1.1341
  Cd  Cd4  1  0.740720  0.518540  0.447870  1.0  1.0423
  Cd  Cd5  1  0.404960  0.404560  0.799490  1.0  1.0664
  Cd  Cd6  1  0.488740  0.190490  0.622390  1.0  1.134
  Cd  Cd7  1  0.240720  0.518540  0.052130  1.0  1.046
  Cd  Cd8  1  0.904960  0.404560  0.700510  1.0  1.0649
  Cd  Cd9  1  0.988740  0.190490  0.877610  1.0  1.1343
  Cd  Cd10  1  0.259280  0.481460  0.552130  1.0  1.0453
  Cd  Cd11  1  0.595040  0.595440  0.200510  1.0  1.0634
  Cd  Cd12  1  0.511260  0.809510  0.377610  1.0  1.1338
  H  H13  1  0.499600  0.829200  0.029400  1.0  0.1129
  H  H14  1  0.858000  0.133500  0.039000  1.0  0.1236
  H  H15  1  0.772900  0.968500  0.948500  1.0  0.1266
  H  H16  1  0.506100  0.805100  0.942600  1.0  0.1369
  H  H17  1  0.419800  0.744400  0.975900  1.0  0.1311
  H  H18  1  0.520900  0.942600  0.082400  1.0  0.1348
  H  H19  1  0.664300  0.060200  0.087200  1.0  0.1224
  H  H20  1  0.030700  0.133200  0.958200  1.0  0.129
  H  H21  1  0.047100  0.206200  0.992500  1.0  0.1347
  H  H22  1  0.887100  0.113700  0.213300  1.0  0.1236
  H  H23  1  0.044500  0.887700  0.277000  1.0  0.1076
  H  H24  1  0.875200  0.167000  0.313600  1.0  0.1273
  H  H25  1  0.788600  0.277600  0.231400  1.0  0.1408
  H  H26  1  0.695700  0.261100  0.266500  1.0  0.1425
  H  H27  1  0.028600  0.963800  0.190700  1.0  0.1408
  H  H28  1  0.105800  0.883500  0.215800  1.0  0.149
  H  H29  1  0.039000  0.046800  0.350800  1.0  0.1339
  H  H30  1  0.068400  0.924400  0.336100  1.0  0.137
  H  H31  1  0.000400  0.170800  0.529400  1.0  0.1129
  H  H32  1  0.642000  0.866500  0.539000  1.0  0.1233
  H  H33  1  0.727100  0.031500  0.448500  1.0  0.1286
  H  H34  1  0.993900  0.194900  0.442600  1.0  0.138
  H  H35  1  0.080200  0.255600  0.475900  1.0  0.1308
  H  H36  1  0.979100  0.057400  0.582400  1.0  0.1343
  H  H37  1  0.835700  0.939800  0.587200  1.0  0.1237
  H  H38  1  0.469300  0.866800  0.458200  1.0  0.127
  H  H39  1  0.452900  0.793800  0.492500  1.0  0.1371
  H  H40  1  0.612900  0.886300  0.713300  1.0  0.1231
  H  H41  1  0.455500  0.112300  0.777000  1.0  0.1073
  H  H42  1  0.624800  0.833000  0.813600  1.0  0.1273
  H  H43  1  0.711400  0.722400  0.731400  1.0  0.141
  H  H44  1  0.804300  0.738900  0.766500  1.0  0.1418
  H  H45  1  0.471400  0.036200  0.690700  1.0  0.1405
  H  H46  1  0.394200  0.116500  0.715800  1.0  0.1517
  H  H47  1  0.461000  0.953200  0.850800  1.0  0.1344
  H  H48  1  0.431600  0.075600  0.836100  1.0  0.1368
  H  H49  1  0.500400  0.170800  0.970600  1.0  0.1131
  H  H50  1  0.142000  0.866500  0.961000  1.0  0.1229
  H  H51  1  0.227100  0.031500  0.051500  1.0  0.1298
  H  H52  1  0.493900  0.194900  0.057400  1.0  0.1369
  H  H53  1  0.580200  0.255600  0.024100  1.0  0.1325
  H  H54  1  0.479100  0.057400  0.917600  1.0  0.1339
  H  H55  1  0.335700  0.939800  0.912800  1.0  0.1229
  H  H56  1  0.969300  0.866800  0.041800  1.0  0.1292
  H  H57  1  0.952900  0.793800  0.007500  1.0  0.1368
  H  H58  1  0.112900  0.886300  0.786700  1.0  0.1234
  H  H59  1  0.955500  0.112300  0.723000  1.0  0.1073
  H  H60  1  0.124800  0.833000  0.686400  1.0  0.1278
  H  H61  1  0.211400  0.722400  0.768600  1.0  0.1409
  H  H62  1  0.304300  0.738900  0.733500  1.0  0.1422
  H  H63  1  0.971400  0.036200  0.809300  1.0  0.1421
  H  H64  1  0.894200  0.116500  0.784200  1.0  0.1526
  H  H65  1  0.961000  0.953200  0.649200  1.0  0.1339
  H  H66  1  0.931600  0.075600  0.663900  1.0  0.1351
  H  H67  1  0.999600  0.829200  0.470600  1.0  0.1125
  H  H68  1  0.358000  0.133500  0.461000  1.0  0.1237
  H  H69  1  0.272900  0.968500  0.551500  1.0  0.1302
  H  H70  1  0.006100  0.805100  0.557400  1.0  0.1339
  H  H71  1  0.919800  0.744400  0.524100  1.0  0.1323
  H  H72  1  0.020900  0.942600  0.417600  1.0  0.1351
  H  H73  1  0.164300  0.060200  0.412800  1.0  0.1222
  H  H74  1  0.530700  0.133200  0.541800  1.0  0.1303
  H  H75  1  0.547100  0.206200  0.507500  1.0  0.1364
  H  H76  1  0.387100  0.113700  0.286700  1.0  0.1233
  H  H77  1  0.544500  0.887700  0.223000  1.0  0.1071
  H  H78  1  0.375200  0.167000  0.186400  1.0  0.1278
  H  H79  1  0.288600  0.277600  0.268600  1.0  0.14
  H  H80  1  0.195700  0.261100  0.233500  1.0  0.1431
  H  H81  1  0.528600  0.963800  0.309300  1.0  0.1421
  H  H82  1  0.605800  0.883500  0.284200  1.0  0.1502
  H  H83  1  0.539000  0.046800  0.149200  1.0  0.1338
  H  H84  1  0.568400  0.924400  0.163900  1.0  0.1364
  C  C85  1  0.623900  0.882100  0.985850  1.0  0.1435
  C  C86  1  0.585500  0.888200  0.019950  1.0  -0.2031
  C  C87  1  0.673400  0.981200  0.040330  1.0  0.111
  C  C88  1  0.798500  0.070800  0.025610  1.0  -0.2174
  C  C89  1  0.835400  0.067700  0.991260  1.0  0.1442
  C  C90  1  0.747800  0.972000  0.971560  1.0  -0.2221
  C  C91  1  0.527800  0.776600  0.965090  1.0  -0.3489
  C  C92  1  0.622200  0.676600  0.961510  1.0  0.7228
  C  C93  1  0.638800  0.978600  0.078040  1.0  -0.3514
  C  C94  1  0.750400  0.903800  0.094720  1.0  0.7232
  C  C95  1  0.968200  0.168000  0.975100  1.0  -0.3618
  C  C96  1  0.890400  0.262500  0.958260  1.0  0.7758
  C  C97  1  0.872300  0.159400  0.262430  1.0  0.1391
  C  C98  1  0.906300  0.090300  0.235340  1.0  -0.2299
  C  C99  1  0.968200  0.987400  0.240230  1.0  0.1527
  C  C100  1  0.998800  0.954800  0.273340  1.0  -0.1867
  C  C101  1  0.963000  0.019800  0.300920  1.0  0.1398
  C  C102  1  0.899600  0.122500  0.295100  1.0  -0.2045
  C  C103  1  0.805200  0.271200  0.255690  1.0  -0.3418
  C  C104  1  0.917700  0.389100  0.268200  1.0  0.7234
  C  C105  1  0.005000  0.912400  0.210670  1.0  -0.3934
  C  C106  1  0.864400  0.805200  0.202220  1.0  0.7945
  C  C107  1  0.990200  0.977600  0.336720  1.0  -0.3545
  C  C108  1  0.824400  0.911200  0.351960  1.0  0.723
  C  C109  1  0.876100  0.117900  0.485850  1.0  0.1426
  C  C110  1  0.914500  0.111800  0.519950  1.0  -0.2033
  C  C111  1  0.826600  0.018800  0.540330  1.0  0.1099
  C  C112  1  0.701500  0.929200  0.525610  1.0  -0.2173
  C  C113  1  0.664600  0.932300  0.491260  1.0  0.1445
  C  C114  1  0.752200  0.028000  0.471560  1.0  -0.2247
  C  C115  1  0.972200  0.223400  0.465090  1.0  -0.3499
  C  C116  1  0.877800  0.323400  0.461510  1.0  0.7252
  C  C117  1  0.861200  0.021400  0.578040  1.0  -0.3527
  C  C118  1  0.749600  0.096200  0.594720  1.0  0.7188
  C  C119  1  0.531800  0.832000  0.475100  1.0  -0.3605
  C  C120  1  0.609600  0.737500  0.458260  1.0  0.7723
  C  C121  1  0.627700  0.840600  0.762430  1.0  0.1392
  C  C122  1  0.593700  0.909700  0.735340  1.0  -0.2279
  C  C123  1  0.531800  0.012600  0.740230  1.0  0.1524
  C  C124  1  0.501200  0.045200  0.773340  1.0  -0.1936
  C  C125  1  0.537000  0.980200  0.800920  1.0  0.1405
  C  C126  1  0.600400  0.877500  0.795100  1.0  -0.2026
  C  C127  1  0.694800  0.728800  0.755690  1.0  -0.3424
  C  C128  1  0.582300  0.610900  0.768200  1.0  0.7249
  C  C129  1  0.495000  0.087600  0.710670  1.0  -0.3927
  C  C130  1  0.635600  0.194800  0.702220  1.0  0.7859
  C  C131  1  0.509800  0.022400  0.836720  1.0  -0.355
  C  C132  1  0.675600  0.088800  0.851960  1.0  0.7228
  C  C133  1  0.376100  0.117900  0.014150  1.0  0.1434
  C  C134  1  0.414500  0.111800  0.980050  1.0  -0.2026
  C  C135  1  0.326600  0.018800  0.959670  1.0  0.1168
  C  C136  1  0.201500  0.929200  0.974390  1.0  -0.2174
  C  C137  1  0.164600  0.932300  0.008740  1.0  0.1445
  C  C138  1  0.252200  0.028000  0.028440  1.0  -0.2289
  C  C139  1  0.472200  0.223400  0.034910  1.0  -0.3506
  C  C140  1  0.377800  0.323400  0.038490  1.0  0.7236
  C  C141  1  0.361200  0.021400  0.921960  1.0  -0.3525
  C  C142  1  0.249600  0.096200  0.905280  1.0  0.721
  C  C143  1  0.031800  0.832000  0.024900  1.0  -0.3594
  C  C144  1  0.109600  0.737500  0.041740  1.0  0.7737
  C  C145  1  0.127700  0.840600  0.737570  1.0  0.1384
  C  C146  1  0.093700  0.909700  0.764660  1.0  -0.2267
  C  C147  1  0.031800  0.012600  0.759770  1.0  0.1525
  C  C148  1  0.001200  0.045200  0.726660  1.0  -0.1945
  C  C149  1  0.037000  0.980200  0.699080  1.0  0.1395
  C  C150  1  0.100400  0.877500  0.704900  1.0  -0.2033
  C  C151  1  0.194800  0.728800  0.744310  1.0  -0.3414
  C  C152  1  0.082300  0.610900  0.731800  1.0  0.7231
  C  C153  1  0.995000  0.087600  0.789330  1.0  -0.3939
  C  C154  1  0.135600  0.194800  0.797780  1.0  0.7781
  C  C155  1  0.009800  0.022400  0.663280  1.0  -0.3551
  C  C156  1  0.175600  0.088800  0.648040  1.0  0.7227
  C  C157  1  0.123900  0.882100  0.514150  1.0  0.1439
  C  C158  1  0.085500  0.888200  0.480050  1.0  -0.2029
  C  C159  1  0.173400  0.981200  0.459670  1.0  0.1194
  C  C160  1  0.298500  0.070800  0.474390  1.0  -0.2183
  C  C161  1  0.335400  0.067700  0.508740  1.0  0.144
  C  C162  1  0.247800  0.972000  0.528440  1.0  -0.225
  C  C163  1  0.027800  0.776600  0.534910  1.0  -0.3496
  C  C164  1  0.122200  0.676600  0.538490  1.0  0.7226
  C  C165  1  0.138800  0.978600  0.421960  1.0  -0.3533
  C  C166  1  0.250400  0.903800  0.405280  1.0  0.7232
  C  C167  1  0.468200  0.168000  0.524900  1.0  -0.3612
  C  C168  1  0.390400  0.262500  0.541740  1.0  0.7763
  C  C169  1  0.372300  0.159400  0.237570  1.0  0.1387
  C  C170  1  0.406300  0.090300  0.264660  1.0  -0.2292
  C  C171  1  0.468200  0.987400  0.259770  1.0  0.1528
  C  C172  1  0.498800  0.954800  0.226660  1.0  -0.1879
  C  C173  1  0.463000  0.019800  0.199080  1.0  0.1395
  C  C174  1  0.399600  0.122500  0.204900  1.0  -0.2048
  C  C175  1  0.305200  0.271200  0.244310  1.0  -0.3412
  C  C176  1  0.417700  0.389100  0.231800  1.0  0.7234
  C  C177  1  0.505000  0.912400  0.289330  1.0  -0.3929
  C  C178  1  0.364400  0.805200  0.297780  1.0  0.7874
  C  C179  1  0.490200  0.977600  0.163280  1.0  -0.3553
  C  C180  1  0.324400  0.911200  0.148040  1.0  0.7232
  O  O181  1  0.651500  0.617200  0.986880  1.0  -0.6079
  O  O182  1  0.670300  0.653500  0.932180  1.0  -0.5966
  O  O183  1  0.888600  0.959400  0.106550  1.0  -0.6136
  O  O184  1  0.707700  0.790300  0.094620  1.0  -0.6579
  O  O185  1  0.836400  0.335100  0.977640  1.0  -0.5989
  O  O186  1  0.879700  0.268000  0.926850  1.0  -0.663
  O  O187  1  0.935400  0.402800  0.300000  1.0  -0.5925
  O  O188  1  0.988000  0.468700  0.247850  1.0  -0.6194
  O  O189  1  0.778900  0.746600  0.225890  1.0  -0.5749
  O  O190  1  0.836300  0.776800  0.171660  1.0  -0.6614
  O  O191  1  0.749200  0.966500  0.372430  1.0  -0.6234
  O  O192  1  0.759600  0.804000  0.343630  1.0  -0.6603
  O  O193  1  0.848500  0.382800  0.486880  1.0  -0.609
  O  O194  1  0.829700  0.346500  0.432180  1.0  -0.6046
  O  O195  1  0.611400  0.040600  0.606550  1.0  -0.6129
  O  O196  1  0.792300  0.209700  0.594620  1.0  -0.6539
  O  O197  1  0.663600  0.664900  0.477640  1.0  -0.5974
  O  O198  1  0.620300  0.732000  0.426850  1.0  -0.6626
  O  O199  1  0.564600  0.597200  0.800000  1.0  -0.5945
  O  O200  1  0.512000  0.531300  0.747850  1.0  -0.6174
  O  O201  1  0.721100  0.253400  0.725890  1.0  -0.5754
  O  O202  1  0.663700  0.223200  0.671660  1.0  -0.6611
  O  O203  1  0.750800  0.033500  0.872430  1.0  -0.6219
  O  O204  1  0.740400  0.196000  0.843630  1.0  -0.659
  O  O205  1  0.348500  0.382800  0.013120  1.0  -0.6076
  O  O206  1  0.329700  0.346500  0.067820  1.0  -0.5949
  O  O207  1  0.111400  0.040600  0.893450  1.0  -0.6118
  O  O208  1  0.292300  0.209700  0.905380  1.0  -0.6539
  O  O209  1  0.163600  0.664900  0.022360  1.0  -0.5984
  O  O210  1  0.120300  0.732000  0.073150  1.0  -0.6659
  O  O211  1  0.064600  0.597200  0.700000  1.0  -0.5922
  O  O212  1  0.012000  0.531300  0.752150  1.0  -0.6168
  O  O213  1  0.221100  0.253400  0.774110  1.0  -0.5754
  O  O214  1  0.163700  0.223200  0.828340  1.0  -0.6602
  O  O215  1  0.250800  0.033500  0.627570  1.0  -0.6217
  O  O216  1  0.240400  0.196000  0.656370  1.0  -0.6588
  O  O217  1  0.151500  0.617200  0.513120  1.0  -0.6064
  O  O218  1  0.170300  0.653500  0.567820  1.0  -0.5936
  O  O219  1  0.388600  0.959400  0.393450  1.0  -0.614
  O  O220  1  0.207700  0.790300  0.405380  1.0  -0.6584
  O  O221  1  0.336400  0.335100  0.522360  1.0  -0.5993
  O  O222  1  0.379700  0.268000  0.573150  1.0  -0.6645
  O  O223  1  0.435400  0.402800  0.200000  1.0  -0.5947
  O  O224  1  0.488000  0.468700  0.252150  1.0  -0.6208
  O  O225  1  0.278900  0.746600  0.274110  1.0  -0.575
  O  O226  1  0.336300  0.776800  0.328340  1.0  -0.6609
  O  O227  1  0.249200  0.966500  0.127570  1.0  -0.6227
  O  O228  1  0.259600  0.804000  0.156370  1.0  -0.6602
