# generated using pymatgen
data_EuH12C21NO6
_symmetry_space_group_name_H-M   'P 1'
_cell_length_a   14.57580000
_cell_length_b   23.24500000
_cell_length_c   24.81500000
_cell_angle_alpha   90.00000000
_cell_angle_beta   102.90400000
_cell_angle_gamma   90.00000000
_symmetry_Int_Tables_number   1
_chemical_formula_structural   EuH12C21NO6
_chemical_formula_sum   'Eu12 H144 C252 N12 O72'
_cell_volume   8195.35020694
_cell_formula_units_Z   12
loop_
 _symmetry_equiv_pos_site_id
 _symmetry_equiv_pos_as_xyz
  1  'x, y, z'
loop_
 _atom_site_type_symbol
 _atom_site_label
 _atom_site_symmetry_multiplicity
 _atom_site_fract_x
 _atom_site_fract_y
 _atom_site_fract_z
 _atom_site_occupancy
 _atom_site_charge
  Eu  Eu1  1  0.756250  0.742880  0.771220  1.0  2.0835
  Eu  Eu2  1  0.263390  0.265540  0.070820  1.0  2.1437
  Eu  Eu3  1  0.761250  0.782100  0.106690  1.0  2.1357
  Eu  Eu4  1  0.243750  0.242880  0.728780  1.0  2.0844
  Eu  Eu5  1  0.736610  0.765540  0.429180  1.0  2.1432
  Eu  Eu6  1  0.238750  0.282100  0.393310  1.0  2.1357
  Eu  Eu7  1  0.243750  0.257120  0.228780  1.0  2.0852
  Eu  Eu8  1  0.736610  0.734460  0.929180  1.0  2.143
  Eu  Eu9  1  0.238750  0.217900  0.893310  1.0  2.1355
  Eu  Eu10  1  0.756250  0.757120  0.271220  1.0  2.0843
  Eu  Eu11  1  0.263390  0.234460  0.570820  1.0  2.1434
  Eu  Eu12  1  0.761250  0.717900  0.606690  1.0  2.1353
  H  H13  1  0.144700  0.535900  0.933900  1.0  0.1219
  H  H14  1  0.150600  0.440900  0.956300  1.0  0.1114
  H  H15  1  0.370900  0.468800  0.082700  1.0  0.1041
  H  H16  1  0.367100  0.565000  0.061700  1.0  0.1211
  H  H17  1  0.410600  0.599300  0.949100  1.0  0.1185
  H  H18  1  0.548700  0.648600  0.966700  1.0  0.1002
  H  H19  1  0.438200  0.769400  0.046000  1.0  0.1016
  H  H20  1  0.297700  0.718400  0.031300  1.0  0.1366
  H  H21  1  0.232400  0.704500  0.910500  1.0  0.1032
  H  H22  1  0.098900  0.750600  0.863200  1.0  0.1148
  H  H23  1  0.943500  0.654300  0.941200  1.0  0.0985
  H  H24  1  0.078700  0.609300  0.992500  1.0  0.1354
  H  H25  1  0.113400  0.571000  0.842500  1.0  0.1014
  H  H26  1  0.970500  0.612000  0.804700  1.0  0.1303
  H  H27  1  0.081700  0.681200  0.684700  1.0  0.115
  H  H28  1  0.226200  0.637800  0.723900  1.0  0.099
  H  H29  1  0.366000  0.507600  0.889900  1.0  0.1036
  H  H30  1  0.369300  0.407900  0.898800  1.0  0.1116
  H  H31  1  0.153100  0.396600  0.766500  1.0  0.1256
  H  H32  1  0.158000  0.495300  0.756900  1.0  0.1042
  H  H33  1  0.421100  0.527000  0.785600  1.0  0.1269
  H  H34  1  0.561700  0.570900  0.785500  1.0  0.1139
  H  H35  1  0.466700  0.715700  0.839800  1.0  0.1087
  H  H36  1  0.325000  0.675900  0.836000  1.0  0.1297
  H  H37  1  0.678100  0.040000  0.809500  1.0  0.0959
  H  H38  1  0.679800  0.944400  0.787400  1.0  0.1155
  H  H39  1  0.807100  0.908700  0.943600  1.0  0.1017
  H  H40  1  0.804900  0.005100  0.967100  1.0  0.1271
  H  H41  1  0.722400  0.193700  0.851700  1.0  0.1172
  H  H42  1  0.582100  0.241500  0.817000  1.0  0.112
  H  H43  1  0.439500  0.118700  0.875100  1.0  0.1119
  H  H44  1  0.578100  0.069900  0.910000  1.0  0.1282
  H  H45  1  0.912200  0.064600  0.889000  1.0  0.1249
  H  H46  1  0.056700  0.107700  0.923900  1.0  0.0949
  H  H47  1  0.932600  0.226900  0.996500  1.0  0.0995
  H  H48  1  0.791500  0.184600  0.964000  1.0  0.1099
  H  H49  1  0.855300  0.035900  0.566100  1.0  0.1224
  H  H50  1  0.849400  0.940900  0.543700  1.0  0.1122
  H  H51  1  0.629100  0.968800  0.417300  1.0  0.1042
  H  H52  1  0.632900  0.065000  0.438300  1.0  0.1212
  H  H53  1  0.589400  0.099300  0.550900  1.0  0.1182
  H  H54  1  0.451300  0.148600  0.533300  1.0  0.1002
  H  H55  1  0.561800  0.269400  0.454000  1.0  0.102
  H  H56  1  0.702300  0.218400  0.468700  1.0  0.1364
  H  H57  1  0.767600  0.204500  0.589500  1.0  0.1039
  H  H58  1  0.901100  0.250600  0.636800  1.0  0.1147
  H  H59  1  0.056500  0.154300  0.558800  1.0  0.0978
  H  H60  1  0.921300  0.109300  0.507500  1.0  0.1349
  H  H61  1  0.886600  0.071000  0.657500  1.0  0.1034
  H  H62  1  0.029500  0.112000  0.695300  1.0  0.1303
  H  H63  1  0.918300  0.181200  0.815300  1.0  0.1148
  H  H64  1  0.773800  0.137800  0.776100  1.0  0.0987
  H  H65  1  0.634000  0.007600  0.610100  1.0  0.1041
  H  H66  1  0.630700  0.907900  0.601200  1.0  0.1114
  H  H67  1  0.846900  0.896600  0.733500  1.0  0.1258
  H  H68  1  0.842000  0.995300  0.743100  1.0  0.105
  H  H69  1  0.578900  0.027000  0.714400  1.0  0.126
  H  H70  1  0.438300  0.070900  0.714500  1.0  0.114
  H  H71  1  0.533300  0.215700  0.660200  1.0  0.1092
  H  H72  1  0.675000  0.175900  0.664000  1.0  0.1299
  H  H73  1  0.321900  0.540000  0.690500  1.0  0.0957
  H  H74  1  0.320200  0.444400  0.712600  1.0  0.1155
  H  H75  1  0.192900  0.408700  0.556400  1.0  0.1011
  H  H76  1  0.195100  0.505100  0.532900  1.0  0.1274
  H  H77  1  0.277600  0.693700  0.648300  1.0  0.117
  H  H78  1  0.417900  0.741500  0.683000  1.0  0.1111
  H  H79  1  0.560500  0.618700  0.624900  1.0  0.1119
  H  H80  1  0.421900  0.569900  0.590000  1.0  0.1277
  H  H81  1  0.087800  0.564600  0.611000  1.0  0.1244
  H  H82  1  0.943300  0.607700  0.576100  1.0  0.0943
  H  H83  1  0.067400  0.726900  0.503500  1.0  0.0998
  H  H84  1  0.208500  0.684600  0.536000  1.0  0.1098
  H  H85  1  0.855300  0.464100  0.066100  1.0  0.1224
  H  H86  1  0.849400  0.559100  0.043700  1.0  0.1119
  H  H87  1  0.629100  0.531200  0.917300  1.0  0.1044
  H  H88  1  0.632900  0.435000  0.938300  1.0  0.1208
  H  H89  1  0.589400  0.400700  0.050900  1.0  0.1176
  H  H90  1  0.451300  0.351400  0.033300  1.0  0.1002
  H  H91  1  0.561800  0.230600  0.954000  1.0  0.1021
  H  H92  1  0.702300  0.281600  0.968700  1.0  0.1366
  H  H93  1  0.767600  0.295500  0.089500  1.0  0.1044
  H  H94  1  0.901100  0.249400  0.136800  1.0  0.1144
  H  H95  1  0.056500  0.345700  0.058800  1.0  0.0978
  H  H96  1  0.921300  0.390700  0.007500  1.0  0.1348
  H  H97  1  0.886600  0.429000  0.157500  1.0  0.1032
  H  H98  1  0.029500  0.388000  0.195300  1.0  0.1304
  H  H99  1  0.918300  0.318800  0.315300  1.0  0.1146
  H  H100  1  0.773800  0.362200  0.276100  1.0  0.0985
  H  H101  1  0.634000  0.492400  0.110100  1.0  0.1046
  H  H102  1  0.630700  0.592100  0.101200  1.0  0.1114
  H  H103  1  0.846900  0.603400  0.233500  1.0  0.1258
  H  H104  1  0.842000  0.504700  0.243100  1.0  0.1047
  H  H105  1  0.578900  0.473000  0.214400  1.0  0.1254
  H  H106  1  0.438300  0.429100  0.214500  1.0  0.1143
  H  H107  1  0.533300  0.284300  0.160200  1.0  0.1089
  H  H108  1  0.675000  0.324100  0.164000  1.0  0.1293
  H  H109  1  0.321900  0.960000  0.190500  1.0  0.0963
  H  H110  1  0.320200  0.055600  0.212600  1.0  0.1154
  H  H111  1  0.192900  0.091300  0.056400  1.0  0.1012
  H  H112  1  0.195100  0.994900  0.032900  1.0  0.1271
  H  H113  1  0.277600  0.806300  0.148300  1.0  0.1175
  H  H114  1  0.417900  0.758500  0.183000  1.0  0.1109
  H  H115  1  0.560500  0.881300  0.124900  1.0  0.1125
  H  H116  1  0.421900  0.930100  0.090000  1.0  0.128
  H  H117  1  0.087800  0.935400  0.111000  1.0  0.1244
  H  H118  1  0.943300  0.892300  0.076100  1.0  0.0943
  H  H119  1  0.067400  0.773100  0.003500  1.0  0.0996
  H  H120  1  0.208500  0.815400  0.036000  1.0  0.1091
  H  H121  1  0.144700  0.964100  0.433900  1.0  0.1225
  H  H122  1  0.150600  0.059100  0.456300  1.0  0.112
  H  H123  1  0.370900  0.031200  0.582700  1.0  0.1047
  H  H124  1  0.367100  0.935000  0.561700  1.0  0.121
  H  H125  1  0.410600  0.900700  0.449100  1.0  0.1179
  H  H126  1  0.548700  0.851400  0.466700  1.0  0.1
  H  H127  1  0.438200  0.730600  0.546000  1.0  0.1015
  H  H128  1  0.297700  0.781600  0.531300  1.0  0.1367
  H  H129  1  0.232400  0.795500  0.410500  1.0  0.1037
  H  H130  1  0.098900  0.749400  0.363200  1.0  0.1133
  H  H131  1  0.943500  0.845700  0.441200  1.0  0.098
  H  H132  1  0.078700  0.890700  0.492500  1.0  0.135
  H  H133  1  0.113400  0.929000  0.342500  1.0  0.1012
  H  H134  1  0.970500  0.888000  0.304700  1.0  0.1302
  H  H135  1  0.081700  0.818800  0.184700  1.0  0.1147
  H  H136  1  0.226200  0.862200  0.223900  1.0  0.0987
  H  H137  1  0.366000  0.992400  0.389900  1.0  0.1037
  H  H138  1  0.369300  0.092100  0.398800  1.0  0.1113
  H  H139  1  0.153100  0.103400  0.266500  1.0  0.1257
  H  H140  1  0.158000  0.004700  0.256900  1.0  0.1039
  H  H141  1  0.421100  0.973000  0.285600  1.0  0.1264
  H  H142  1  0.561700  0.929100  0.285500  1.0  0.114
  H  H143  1  0.466700  0.784300  0.339800  1.0  0.1089
  H  H144  1  0.325000  0.824100  0.336000  1.0  0.1298
  H  H145  1  0.678100  0.460000  0.309500  1.0  0.0964
  H  H146  1  0.679800  0.555600  0.287400  1.0  0.1154
  H  H147  1  0.807100  0.591300  0.443600  1.0  0.1014
  H  H148  1  0.804900  0.494900  0.467100  1.0  0.1269
  H  H149  1  0.722400  0.306300  0.351700  1.0  0.1173
  H  H150  1  0.582100  0.258500  0.317000  1.0  0.1107
  H  H151  1  0.439500  0.381300  0.375100  1.0  0.112
  H  H152  1  0.578100  0.430100  0.410000  1.0  0.1281
  H  H153  1  0.912200  0.435400  0.389000  1.0  0.1248
  H  H154  1  0.056700  0.392300  0.423900  1.0  0.0955
  H  H155  1  0.932600  0.273100  0.496500  1.0  0.0995
  H  H156  1  0.791500  0.315400  0.464000  1.0  0.1092
  C  C157  1  0.256100  0.561900  0.995400  1.0  0.1479
  C  C158  1  0.190000  0.522700  0.963900  1.0  -0.2403
  C  C159  1  0.193300  0.466000  0.977800  1.0  -0.0326
  C  C160  1  0.258600  0.443900  0.023400  1.0  -0.1364
  C  C161  1  0.324800  0.482500  0.053300  1.0  -0.037
  C  C162  1  0.323300  0.540300  0.040400  1.0  -0.1602
  C  C163  1  0.256100  0.384000  0.039800  1.0  0.678
  C  C164  1  0.416800  0.632900  0.970000  1.0  -0.1516
  C  C165  1  0.498100  0.662600  0.979900  1.0  -0.0263
  C  C166  1  0.507900  0.712600  0.008700  1.0  -0.1592
  C  C167  1  0.432500  0.734300  0.027500  1.0  -0.0018
  C  C168  1  0.349000  0.704400  0.018800  1.0  -0.2124
  C  C169  1  0.344300  0.652200  0.990600  1.0  0.2351
  C  C170  1  0.598500  0.747300  0.023100  1.0  0.6855
  C  C171  1  0.169600  0.649500  0.953500  1.0  0.1479
  C  C172  1  0.174100  0.693300  0.916300  1.0  -0.1762
  C  C173  1  0.093500  0.720900  0.887400  1.0  -0.0645
  C  C174  1  0.005700  0.705100  0.893900  1.0  -0.1281
  C  C175  1  0.001800  0.663800  0.934300  1.0  -0.0608
  C  C176  1  0.083000  0.635900  0.965200  1.0  -0.2365
  C  C177  1  0.916400  0.728000  0.861100  1.0  0.657
  C  C178  1  0.184500  0.599800  0.785900  1.0  0.198
  C  C179  1  0.106500  0.592800  0.810400  1.0  -0.1127
  C  C180  1  0.021200  0.617200  0.788200  1.0  -0.0279
  C  C181  1  0.011600  0.649900  0.740400  1.0  -0.1194
  C  C182  1  0.088000  0.658500  0.716200  1.0  -0.0267
  C  C183  1  0.175000  0.632500  0.740000  1.0  -0.155
  C  C184  1  0.916300  0.675500  0.714400  1.0  0.7195
  C  C185  1  0.265400  0.510900  0.820400  1.0  0.1936
  C  C186  1  0.325300  0.485100  0.864100  1.0  -0.1499
  C  C187  1  0.326100  0.425200  0.870100  1.0  -0.0116
  C  C188  1  0.262700  0.391700  0.833400  1.0  -0.1424
  C  C189  1  0.197700  0.418300  0.790800  1.0  -0.1159
  C  C190  1  0.201100  0.477600  0.785400  1.0  -0.1562
  C  C191  1  0.264800  0.328200  0.840900  1.0  0.6767
  C  C192  1  0.357900  0.597900  0.811200  1.0  0.1503
  C  C193  1  0.430500  0.565400  0.795700  1.0  -0.1253
  C  C194  1  0.514000  0.591500  0.796100  1.0  0.0301
  C  C195  1  0.528900  0.648300  0.812100  1.0  -0.1877
  C  C196  1  0.456400  0.677800  0.827800  1.0  -0.0451
  C  C197  1  0.372800  0.654300  0.826500  1.0  -0.173
  C  C198  1  0.621500  0.676000  0.811600  1.0  0.6509
  C  C199  1  0.743500  0.034000  0.890600  1.0  0.1446
  C  C200  1  0.704800  0.013700  0.836800  1.0  -0.1338
  C  C201  1  0.705200  0.956400  0.823400  1.0  -0.046
  C  C202  1  0.743300  0.916700  0.863400  1.0  -0.1317
  C  C203  1  0.780900  0.935500  0.916600  1.0  -0.0123
  C  C204  1  0.780500  0.993600  0.930800  1.0  -0.2076
  C  C205  1  0.745900  0.854200  0.849500  1.0  0.7534
  C  C206  1  0.665800  0.126700  0.882700  1.0  0.1809
  C  C207  1  0.665900  0.177900  0.856100  1.0  -0.2014
  C  C208  1  0.581300  0.206700  0.835400  1.0  -0.0183
  C  C209  1  0.496300  0.184400  0.841900  1.0  -0.1716
  C  C210  1  0.496100  0.133600  0.869900  1.0  -0.003
  C  C211  1  0.579000  0.104200  0.890800  1.0  -0.2026
  C  C212  1  0.407300  0.216200  0.816500  1.0  0.6818
  C  C213  1  0.835600  0.120400  0.923400  1.0  0.2233
  C  C214  1  0.915900  0.097400  0.910800  1.0  -0.1991
  C  C215  1  0.002900  0.124200  0.931500  1.0  -0.0701
  C  C216  1  0.012200  0.172800  0.961800  1.0  -0.1502
  C  C217  1  0.929400  0.194300  0.974400  1.0  -0.0506
  C  C218  1  0.844800  0.168700  0.955200  1.0  -0.2062
  C  C219  1  0.107900  0.197400  0.983300  1.0  0.7155
  C  C220  1  0.743900  0.061900  0.504600  1.0  0.1494
  C  C221  1  0.810000  0.022700  0.536100  1.0  -0.2366
  C  C222  1  0.806700  0.966000  0.522200  1.0  -0.0362
  C  C223  1  0.741400  0.943900  0.476600  1.0  -0.1379
  C  C224  1  0.675200  0.982500  0.446700  1.0  -0.0377
  C  C225  1  0.676700  0.040300  0.459600  1.0  -0.161
  C  C226  1  0.743900  0.884000  0.460200  1.0  0.6758
  C  C227  1  0.583200  0.132900  0.530000  1.0  -0.152
  C  C228  1  0.501900  0.162600  0.520100  1.0  -0.0245
  C  C229  1  0.492100  0.212600  0.491300  1.0  -0.1583
  C  C230  1  0.567500  0.234300  0.472500  1.0  -0.0019
  C  C231  1  0.651000  0.204400  0.481200  1.0  -0.2128
  C  C232  1  0.655700  0.152200  0.509400  1.0  0.2349
  C  C233  1  0.401500  0.247300  0.476900  1.0  0.6862
  C  C234  1  0.830400  0.149500  0.546500  1.0  0.1463
  C  C235  1  0.825900  0.193300  0.583700  1.0  -0.174
  C  C236  1  0.906500  0.220900  0.612600  1.0  -0.0634
  C  C237  1  0.994300  0.205100  0.606100  1.0  -0.1278
  C  C238  1  0.998200  0.163800  0.565700  1.0  -0.0617
  C  C239  1  0.917000  0.135900  0.534800  1.0  -0.2347
  C  C240  1  0.083600  0.228000  0.638900  1.0  0.6581
  C  C241  1  0.815500  0.099800  0.714100  1.0  0.1977
  C  C242  1  0.893500  0.092800  0.689600  1.0  -0.1134
  C  C243  1  0.978800  0.117200  0.711800  1.0  -0.028
  C  C244  1  0.988400  0.149900  0.759600  1.0  -0.1199
  C  C245  1  0.912000  0.158500  0.783800  1.0  -0.0262
  C  C246  1  0.825000  0.132500  0.760000  1.0  -0.1553
  C  C247  1  0.083700  0.175500  0.785600  1.0  0.7177
  C  C248  1  0.734600  0.010900  0.679600  1.0  0.1938
  C  C249  1  0.674700  0.985100  0.635900  1.0  -0.151
  C  C250  1  0.673900  0.925200  0.629900  1.0  -0.013
  C  C251  1  0.737300  0.891700  0.666667  1.0  -0.1432
  C  C252  1  0.802300  0.918300  0.709200  1.0  -0.1138
  C  C253  1  0.798900  0.977600  0.714600  1.0  -0.1539
  C  C254  1  0.735200  0.828200  0.659100  1.0  0.678
  C  C255  1  0.642100  0.097900  0.688800  1.0  0.1494
  C  C256  1  0.569500  0.065400  0.704300  1.0  -0.1243
  C  C257  1  0.486000  0.091500  0.703900  1.0  0.0316
  C  C258  1  0.471100  0.148300  0.687900  1.0  -0.1885
  C  C259  1  0.543600  0.177800  0.672200  1.0  -0.0447
  C  C260  1  0.627200  0.154300  0.673500  1.0  -0.1723
  C  C261  1  0.378500  0.176000  0.688400  1.0  0.6514
  C  C262  1  0.256500  0.534000  0.609400  1.0  0.1464
  C  C263  1  0.295200  0.513700  0.663200  1.0  -0.1342
  C  C264  1  0.294800  0.456400  0.676600  1.0  -0.0461
  C  C265  1  0.256700  0.416700  0.636600  1.0  -0.1315
  C  C266  1  0.219100  0.435500  0.583400  1.0  -0.0121
  C  C267  1  0.219500  0.493600  0.569200  1.0  -0.2063
  C  C268  1  0.254100  0.354200  0.650500  1.0  0.754
  C  C269  1  0.334200  0.626700  0.617300  1.0  0.1826
  C  C270  1  0.334100  0.677900  0.643900  1.0  -0.2024
  C  C271  1  0.418700  0.706700  0.664600  1.0  -0.0192
  C  C272  1  0.503700  0.684400  0.658100  1.0  -0.1714
  C  C273  1  0.503900  0.633600  0.630100  1.0  -0.0046
  C  C274  1  0.421000  0.604200  0.609200  1.0  -0.2034
  C  C275  1  0.592700  0.716200  0.683500  1.0  0.6834
  C  C276  1  0.164400  0.620400  0.576600  1.0  0.2236
  C  C277  1  0.084100  0.597400  0.589200  1.0  -0.1998
  C  C278  1  0.997100  0.624200  0.568500  1.0  -0.0698
  C  C279  1  0.987800  0.672800  0.538200  1.0  -0.1507
  C  C280  1  0.070600  0.694300  0.525600  1.0  -0.0498
  C  C281  1  0.155200  0.668700  0.544800  1.0  -0.2057
  C  C282  1  0.892100  0.697400  0.516700  1.0  0.7164
  C  C283  1  0.743900  0.438100  0.004600  1.0  0.1486
  C  C284  1  0.810000  0.477300  0.036100  1.0  -0.2358
  C  C285  1  0.806700  0.534000  0.022200  1.0  -0.0358
  C  C286  1  0.741400  0.556100  0.976600  1.0  -0.1373
  C  C287  1  0.675200  0.517500  0.946700  1.0  -0.0379
  C  C288  1  0.676700  0.459700  0.959600  1.0  -0.1605
  C  C289  1  0.743900  0.616000  0.960200  1.0  0.6762
  C  C290  1  0.583200  0.367100  0.030000  1.0  -0.1521
  C  C291  1  0.501900  0.337400  0.020100  1.0  -0.0246
  C  C292  1  0.492100  0.287400  0.991300  1.0  -0.1587
  C  C293  1  0.567500  0.265700  0.972500  1.0  -0.0021
  C  C294  1  0.651000  0.295600  0.981200  1.0  -0.2123
  C  C295  1  0.655700  0.347800  0.009400  1.0  0.2355
  C  C296  1  0.401500  0.252700  0.976900  1.0  0.685
  C  C297  1  0.830400  0.350500  0.046500  1.0  0.1461
  C  C298  1  0.825900  0.306700  0.083700  1.0  -0.1723
  C  C299  1  0.906500  0.279100  0.112600  1.0  -0.0653
  C  C300  1  0.994300  0.294900  0.106100  1.0  -0.1291
  C  C301  1  0.998200  0.336200  0.065700  1.0  -0.0617
  C  C302  1  0.917000  0.364100  0.034800  1.0  -0.2347
  C  C303  1  0.083600  0.272000  0.138900  1.0  0.6583
  C  C304  1  0.815500  0.400200  0.214100  1.0  0.1979
  C  C305  1  0.893500  0.407200  0.189600  1.0  -0.1138
  C  C306  1  0.978800  0.382800  0.211800  1.0  -0.0279
  C  C307  1  0.988400  0.350100  0.259600  1.0  -0.1196
  C  C308  1  0.912000  0.341500  0.283800  1.0  -0.0264
  C  C309  1  0.825000  0.367500  0.260000  1.0  -0.1554
  C  C310  1  0.083700  0.324500  0.285600  1.0  0.7175
  C  C311  1  0.734600  0.489100  0.179600  1.0  0.1939
  C  C312  1  0.674700  0.514900  0.135900  1.0  -0.1503
  C  C313  1  0.673900  0.574800  0.129900  1.0  -0.0128
  C  C314  1  0.737300  0.608300  0.166600  1.0  -0.1415
  C  C315  1  0.802300  0.581700  0.209200  1.0  -0.1145
  C  C316  1  0.798900  0.522400  0.214600  1.0  -0.1538
  C  C317  1  0.735200  0.671800  0.159100  1.0  0.6769
  C  C318  1  0.642100  0.402100  0.188800  1.0  0.1494
  C  C319  1  0.569500  0.434600  0.204300  1.0  -0.127
  C  C320  1  0.486000  0.408500  0.203900  1.0  0.0299
  C  C321  1  0.471100  0.351700  0.187900  1.0  -0.1893
  C  C322  1  0.543600  0.322200  0.172200  1.0  -0.0451
  C  C323  1  0.627200  0.345700  0.173500  1.0  -0.1716
  C  C324  1  0.378500  0.324000  0.188400  1.0  0.6515
  C  C325  1  0.256500  0.966000  0.109400  1.0  0.1469
  C  C326  1  0.295200  0.986300  0.163200  1.0  -0.1338
  C  C327  1  0.294800  0.043600  0.176600  1.0  -0.0473
  C  C328  1  0.256700  0.083300  0.136600  1.0  -0.1312
  C  C329  1  0.219100  0.064500  0.083400  1.0  -0.0125
  C  C330  1  0.219500  0.006400  0.069200  1.0  -0.2056
  C  C331  1  0.254100  0.145800  0.150500  1.0  0.754
  C  C332  1  0.334200  0.873300  0.117300  1.0  0.1829
  C  C333  1  0.334100  0.822100  0.143900  1.0  -0.2002
  C  C334  1  0.418700  0.793300  0.164600  1.0  -0.0177
  C  C335  1  0.503700  0.815600  0.158100  1.0  -0.1713
  C  C336  1  0.503900  0.866400  0.130100  1.0  -0.0028
  C  C337  1  0.421000  0.895800  0.109200  1.0  -0.2032
  C  C338  1  0.592700  0.783800  0.183500  1.0  0.6832
  C  C339  1  0.164400  0.879600  0.076600  1.0  0.2243
  C  C340  1  0.084100  0.902600  0.089200  1.0  -0.1995
  C  C341  1  0.997100  0.875800  0.068500  1.0  -0.0719
  C  C342  1  0.987800  0.827200  0.038200  1.0  -0.1519
  C  C343  1  0.070600  0.805700  0.025600  1.0  -0.0503
  C  C344  1  0.155200  0.831300  0.044800  1.0  -0.2049
  C  C345  1  0.892100  0.802600  0.016700  1.0  0.7167
  C  C346  1  0.256100  0.938100  0.495400  1.0  0.1479
  C  C347  1  0.190000  0.977300  0.463900  1.0  -0.2403
  C  C348  1  0.193300  0.034000  0.477800  1.0  -0.0328
  C  C349  1  0.258600  0.056100  0.523400  1.0  -0.1365
  C  C350  1  0.324800  0.017500  0.553300  1.0  -0.0368
  C  C351  1  0.323300  0.959700  0.540400  1.0  -0.1597
  C  C352  1  0.256100  0.116000  0.539800  1.0  0.6783
  C  C353  1  0.416800  0.867100  0.470000  1.0  -0.1519
  C  C354  1  0.498100  0.837400  0.479900  1.0  -0.0258
  C  C355  1  0.507900  0.787400  0.508700  1.0  -0.1589
  C  C356  1  0.432500  0.765700  0.527500  1.0  -0.0021
  C  C357  1  0.349000  0.795600  0.518800  1.0  -0.2117
  C  C358  1  0.344300  0.847800  0.490600  1.0  0.2352
  C  C359  1  0.598500  0.752700  0.523100  1.0  0.6831
  C  C360  1  0.169600  0.850500  0.453500  1.0  0.1477
  C  C361  1  0.174100  0.806700  0.416300  1.0  -0.1749
  C  C362  1  0.093500  0.779100  0.387400  1.0  -0.0659
  C  C363  1  0.005700  0.794900  0.393900  1.0  -0.1297
  C  C364  1  0.001800  0.836200  0.434300  1.0  -0.0613
  C  C365  1  0.083000  0.864100  0.465200  1.0  -0.2375
  C  C366  1  0.916400  0.772000  0.361100  1.0  0.6568
  C  C367  1  0.184500  0.900200  0.285900  1.0  0.198
  C  C368  1  0.106500  0.907200  0.310400  1.0  -0.1126
  C  C369  1  0.021200  0.882800  0.288200  1.0  -0.0282
  C  C370  1  0.011600  0.850100  0.240400  1.0  -0.12
  C  C371  1  0.088000  0.841500  0.216200  1.0  -0.0277
  C  C372  1  0.175000  0.867500  0.240000  1.0  -0.156
  C  C373  1  0.916300  0.824500  0.214400  1.0  0.719
  C  C374  1  0.265400  0.989100  0.320400  1.0  0.1935
  C  C375  1  0.325300  0.014900  0.364100  1.0  -0.1496
  C  C376  1  0.326100  0.074800  0.370100  1.0  -0.0117
  C  C377  1  0.262700  0.108300  0.333400  1.0  -0.1408
  C  C378  1  0.197700  0.081700  0.290800  1.0  -0.1164
  C  C379  1  0.201100  0.022400  0.285400  1.0  -0.156
  C  C380  1  0.264800  0.171800  0.340900  1.0  0.6762
  C  C381  1  0.357900  0.902100  0.311200  1.0  0.1504
  C  C382  1  0.430500  0.934600  0.295700  1.0  -0.1275
  C  C383  1  0.514000  0.908500  0.296100  1.0  0.0298
  C  C384  1  0.528900  0.851700  0.312100  1.0  -0.1883
  C  C385  1  0.456400  0.822200  0.327800  1.0  -0.0462
  C  C386  1  0.372800  0.845700  0.326500  1.0  -0.1718
  C  C387  1  0.621500  0.824000  0.311600  1.0  0.6507
  C  C388  1  0.743500  0.466000  0.390600  1.0  0.146
  C  C389  1  0.704800  0.486300  0.336800  1.0  -0.1351
  C  C390  1  0.705200  0.543600  0.323400  1.0  -0.0469
  C  C391  1  0.743300  0.583300  0.363400  1.0  -0.1319
  C  C392  1  0.780900  0.564500  0.416600  1.0  -0.0118
  C  C393  1  0.780500  0.506400  0.430800  1.0  -0.2072
  C  C394  1  0.745900  0.645800  0.349500  1.0  0.7535
  C  C395  1  0.665800  0.373300  0.382700  1.0  0.1809
  C  C396  1  0.665900  0.322100  0.356100  1.0  -0.2004
  C  C397  1  0.581300  0.293300  0.335400  1.0  -0.0165
  C  C398  1  0.496300  0.315600  0.341900  1.0  -0.1721
  C  C399  1  0.496100  0.366400  0.369900  1.0  -0.0026
  C  C400  1  0.579000  0.395800  0.390800  1.0  -0.2057
  C  C401  1  0.407300  0.283800  0.316500  1.0  0.682
  C  C402  1  0.835600  0.379600  0.423400  1.0  0.2226
  C  C403  1  0.915900  0.402600  0.410800  1.0  -0.1997
  C  C404  1  0.002900  0.375800  0.431500  1.0  -0.0726
  C  C405  1  0.012200  0.327200  0.461800  1.0  -0.1505
  C  C406  1  0.929400  0.305700  0.474400  1.0  -0.0513
  C  C407  1  0.844800  0.331300  0.455200  1.0  -0.2054
  C  C408  1  0.107900  0.302600  0.483300  1.0  0.7156
  N  N409  1  0.254500  0.620300  0.980900  1.0  -0.285
  N  N410  1  0.747100  0.094300  0.902700  1.0  -0.1699
  N  N411  1  0.269900  0.570500  0.811100  1.0  -0.1844
  N  N412  1  0.745500  0.120300  0.519100  1.0  -0.2848
  N  N413  1  0.252900  0.594300  0.597300  1.0  -0.1699
  N  N414  1  0.730100  0.070500  0.688900  1.0  -0.1841
  N  N415  1  0.745500  0.379700  0.019100  1.0  -0.2849
  N  N416  1  0.252900  0.905700  0.097300  1.0  -0.17
  N  N417  1  0.730100  0.429500  0.188900  1.0  -0.1841
  N  N418  1  0.254500  0.879700  0.480900  1.0  -0.2848
  N  N419  1  0.747100  0.405700  0.402700  1.0  -0.1705
  N  N420  1  0.269900  0.929500  0.311100  1.0  -0.1844
  O  O421  1  0.191200  0.351000  0.014700  1.0  -0.6713
  O  O422  1  0.317700  0.364100  0.079900  1.0  -0.6315
  O  O423  1  0.669900  0.726600  0.008000  1.0  -0.7857
  O  O424  1  0.604200  0.791500  0.051200  1.0  -0.7044
  O  O425  1  0.838400  0.707800  0.866100  1.0  -0.7571
  O  O426  1  0.920000  0.764000  0.823700  1.0  -0.625
  O  O427  1  0.856800  0.676100  0.743500  1.0  -0.7207
  O  O428  1  0.905100  0.694600  0.665300  1.0  -0.642
  O  O429  1  0.210300  0.296900  0.804100  1.0  -0.793
  O  O430  1  0.318500  0.306200  0.881000  1.0  -0.6488
  O  O431  1  0.643200  0.724900  0.834900  1.0  -0.7656
  O  O432  1  0.675000  0.652900  0.783300  1.0  -0.6275
  O  O433  1  0.766800  0.820900  0.890500  1.0  -0.7342
  O  O434  1  0.728800  0.838100  0.800900  1.0  -0.598
  O  O435  1  0.406100  0.255500  0.782400  1.0  -0.6298
  O  O436  1  0.329800  0.195500  0.825500  1.0  -0.804
  O  O437  1  0.175400  0.182100  0.964900  1.0  -0.7312
  O  O438  1  0.112100  0.235500  0.020700  1.0  -0.6262
  O  O439  1  0.808800  0.851000  0.485300  1.0  -0.6702
  O  O440  1  0.682300  0.864100  0.420100  1.0  -0.6309
  O  O441  1  0.330100  0.226600  0.492000  1.0  -0.786
  O  O442  1  0.395800  0.291500  0.448800  1.0  -0.7037
  O  O443  1  0.161600  0.207800  0.633900  1.0  -0.7564
  O  O444  1  0.080000  0.264000  0.676300  1.0  -0.6263
  O  O445  1  0.143200  0.176100  0.756500  1.0  -0.7212
  O  O446  1  0.094900  0.194600  0.834700  1.0  -0.6425
  O  O447  1  0.789700  0.796900  0.695900  1.0  -0.7925
  O  O448  1  0.681500  0.806200  0.619000  1.0  -0.6481
  O  O449  1  0.356800  0.224900  0.665100  1.0  -0.7644
  O  O450  1  0.325000  0.152900  0.716700  1.0  -0.6237
  O  O451  1  0.233200  0.320900  0.609500  1.0  -0.7335
  O  O452  1  0.271200  0.338100  0.699100  1.0  -0.5973
  O  O453  1  0.593900  0.755500  0.717600  1.0  -0.6305
  O  O454  1  0.670200  0.695500  0.674500  1.0  -0.8054
  O  O455  1  0.824600  0.682100  0.535100  1.0  -0.7312
  O  O456  1  0.887900  0.735500  0.479300  1.0  -0.6256
  O  O457  1  0.808800  0.649000  0.985300  1.0  -0.6707
  O  O458  1  0.682300  0.635900  0.920100  1.0  -0.631
  O  O459  1  0.330100  0.273400  0.992000  1.0  -0.7848
  O  O460  1  0.395800  0.208500  0.948800  1.0  -0.7053
  O  O461  1  0.161600  0.292200  0.133900  1.0  -0.756
  O  O462  1  0.080000  0.236000  0.176300  1.0  -0.6252
  O  O463  1  0.143200  0.323900  0.256500  1.0  -0.7214
  O  O464  1  0.094900  0.305400  0.334700  1.0  -0.6415
  O  O465  1  0.789700  0.703100  0.195900  1.0  -0.7937
  O  O466  1  0.681500  0.693800  0.119000  1.0  -0.6484
  O  O467  1  0.356800  0.275100  0.165100  1.0  -0.7651
  O  O468  1  0.325000  0.347100  0.216700  1.0  -0.6237
  O  O469  1  0.233200  0.179100  0.109500  1.0  -0.7336
  O  O470  1  0.271200  0.161900  0.199100  1.0  -0.5974
  O  O471  1  0.593900  0.744500  0.217600  1.0  -0.6293
  O  O472  1  0.670200  0.804500  0.174500  1.0  -0.805
  O  O473  1  0.824600  0.817900  0.035100  1.0  -0.7319
  O  O474  1  0.887900  0.764500  0.979300  1.0  -0.6266
  O  O475  1  0.191200  0.149000  0.514700  1.0  -0.6711
  O  O476  1  0.317700  0.135900  0.579900  1.0  -0.6319
  O  O477  1  0.669900  0.773400  0.508000  1.0  -0.7852
  O  O478  1  0.604200  0.708500  0.551200  1.0  -0.7052
  O  O479  1  0.838400  0.792200  0.366100  1.0  -0.7566
  O  O480  1  0.920000  0.736000  0.323700  1.0  -0.6245
  O  O481  1  0.856800  0.823900  0.243500  1.0  -0.7207
  O  O482  1  0.905100  0.805400  0.165300  1.0  -0.6415
  O  O483  1  0.210300  0.203100  0.304100  1.0  -0.7931
  O  O484  1  0.318500  0.193800  0.381000  1.0  -0.6489
  O  O485  1  0.643200  0.775100  0.334900  1.0  -0.7647
  O  O486  1  0.675000  0.847100  0.283300  1.0  -0.6263
  O  O487  1  0.766800  0.679100  0.390500  1.0  -0.7337
  O  O488  1  0.728800  0.661900  0.300900  1.0  -0.5981
  O  O489  1  0.406100  0.244500  0.282400  1.0  -0.6306
  O  O490  1  0.329800  0.304500  0.325500  1.0  -0.8046
  O  O491  1  0.175400  0.317900  0.464900  1.0  -0.7303
  O  O492  1  0.112100  0.264500  0.520700  1.0  -0.627
