# generated using pymatgen
data_CuH9C14NO4
_symmetry_space_group_name_H-M   'P 1'
_cell_length_a   16.67270000
_cell_length_b   17.59160000
_cell_length_c   18.73400000
_cell_angle_alpha   77.82670000
_cell_angle_beta   63.57770000
_cell_angle_gamma   61.71350000
_symmetry_Int_Tables_number   1
_chemical_formula_structural   CuH9C14NO4
_chemical_formula_sum   'Cu8 H72 C112 N8 O32'
_cell_volume   4333.10679847
_cell_formula_units_Z   8
loop_
 _symmetry_equiv_pos_site_id
 _symmetry_equiv_pos_as_xyz
  1  'x, y, z'
loop_
 _atom_site_type_symbol
 _atom_site_label
 _atom_site_symmetry_multiplicity
 _atom_site_fract_x
 _atom_site_fract_y
 _atom_site_fract_z
 _atom_site_occupancy
 _atom_site_charge
  Cu  Cu1  1  0.000800  0.936880  0.052200  1.0  0.8871
  Cu  Cu2  1  0.947000  0.563120  0.052200  1.0  0.8876
  Cu  Cu3  1  0.562320  0.936880  0.447800  1.0  0.8877
  Cu  Cu4  1  0.989880  0.563120  0.447800  1.0  0.8876
  Cu  Cu5  1  0.999200  0.063120  0.947800  1.0  0.889
  Cu  Cu6  1  0.053000  0.436880  0.947800  1.0  0.8872
  Cu  Cu7  1  0.437680  0.063120  0.552200  1.0  0.8878
  Cu  Cu8  1  0.010120  0.436880  0.552200  1.0  0.8861
  H  H9  1  0.091100  0.003400  0.205400  1.0  0.1073
  H  H10  1  0.140800  0.058000  0.270200  1.0  0.1198
  H  H11  1  0.103100  0.266000  0.128000  1.0  0.1016
  H  H12  1  0.057100  0.210000  0.061000  1.0  0.1155
  H  H13  1  0.320200  0.954000  0.786400  1.0  0.112
  H  H14  1  0.490700  0.882000  0.731400  1.0  0.1019
  H  H15  1  0.482500  0.725800  0.921800  1.0  0.1186
  H  H16  1  0.312200  0.794600  0.974800  1.0  0.1124
  H  H17  1  0.703500  0.496600  0.205400  1.0  0.1067
  H  H18  1  0.589000  0.442000  0.270200  1.0  0.1193
  H  H19  1  0.768900  0.234000  0.128000  1.0  0.1015
  H  H20  1  0.881900  0.290000  0.061000  1.0  0.1153
  H  H21  1  0.893400  0.546000  0.786400  1.0  0.1115
  H  H22  1  0.777900  0.618000  0.731400  1.0  0.1042
  H  H23  1  0.595700  0.774200  0.921800  1.0  0.1192
  H  H24  1  0.713000  0.705400  0.974800  1.0  0.112
  H  H25  1  0.405500  0.003400  0.294600  1.0  0.1076
  H  H26  1  0.301200  0.058000  0.229800  1.0  0.1196
  H  H27  1  0.130900  0.266000  0.372000  1.0  0.1012
  H  H28  1  0.232900  0.210000  0.439000  1.0  0.1154
  H  H29  1  0.225800  0.954000  0.713600  1.0  0.1114
  H  H30  1  0.127300  0.882000  0.768600  1.0  0.1019
  H  H31  1  0.291700  0.725800  0.578200  1.0  0.1185
  H  H32  1  0.393200  0.794600  0.525200  1.0  0.1125
  H  H33  1  0.299900  0.496600  0.294600  1.0  0.1068
  H  H34  1  0.469000  0.442000  0.229800  1.0  0.1199
  H  H35  1  0.497100  0.234000  0.372000  1.0  0.1009
  H  H36  1  0.328100  0.290000  0.439000  1.0  0.1149
  H  H37  1  0.060600  0.546000  0.713600  1.0  0.1121
  H  H38  1  0.104100  0.618000  0.768600  1.0  0.1033
  H  H39  1  0.130100  0.774200  0.578200  1.0  0.1203
  H  H40  1  0.081600  0.705400  0.525200  1.0  0.1123
  H  H41  1  0.908900  0.996600  0.794600  1.0  0.1081
  H  H42  1  0.859200  0.942000  0.729800  1.0  0.1206
  H  H43  1  0.896900  0.734000  0.872000  1.0  0.1019
  H  H44  1  0.942900  0.790000  0.939000  1.0  0.1154
  H  H45  1  0.679800  0.046000  0.213600  1.0  0.1118
  H  H46  1  0.509300  0.118000  0.268600  1.0  0.1018
  H  H47  1  0.517500  0.274200  0.078200  1.0  0.1191
  H  H48  1  0.687800  0.205400  0.025200  1.0  0.1129
  H  H49  1  0.296500  0.503400  0.794600  1.0  0.1064
  H  H50  1  0.411000  0.558000  0.729800  1.0  0.1188
  H  H51  1  0.231100  0.766000  0.872000  1.0  0.1002
  H  H52  1  0.118100  0.710000  0.939000  1.0  0.1147
  H  H53  1  0.106600  0.454000  0.213600  1.0  0.1121
  H  H54  1  0.222100  0.382000  0.268600  1.0  0.103
  H  H55  1  0.404300  0.225800  0.078200  1.0  0.1201
  H  H56  1  0.287000  0.294600  0.025200  1.0  0.1118
  H  H57  1  0.594500  0.996600  0.705400  1.0  0.1073
  H  H58  1  0.698800  0.942000  0.770200  1.0  0.1193
  H  H59  1  0.869100  0.734000  0.628000  1.0  0.1023
  H  H60  1  0.767100  0.790000  0.561000  1.0  0.1153
  H  H61  1  0.774200  0.046000  0.286400  1.0  0.1117
  H  H62  1  0.872700  0.118000  0.231400  1.0  0.1023
  H  H63  1  0.708300  0.274200  0.421800  1.0  0.1182
  H  H64  1  0.606800  0.205400  0.474800  1.0  0.1125
  H  H65  1  0.700100  0.503400  0.705400  1.0  0.1063
  H  H66  1  0.531000  0.558000  0.770200  1.0  0.1193
  H  H67  1  0.502900  0.766000  0.628000  1.0  0.1012
  H  H68  1  0.671900  0.710000  0.561000  1.0  0.1157
  H  H69  1  0.939400  0.454000  0.286400  1.0  0.1117
  H  H70  1  0.895900  0.382000  0.231400  1.0  0.1037
  H  H71  1  0.869900  0.225800  0.421800  1.0  0.1194
  H  H72  1  0.918400  0.294600  0.474800  1.0  0.1122
  H  H73  1  0.118100  0.263800  0.250000  1.0  0.2474
  H  H74  1  0.631900  0.236200  0.250000  1.0  0.2472
  H  H75  1  0.881900  0.736200  0.750000  1.0  0.2472
  H  H76  1  0.368100  0.763800  0.750000  1.0  0.2473
  H  H77  1  0.634300  0.750000  0.731400  1.0  0.2484
  H  H78  1  0.115700  0.750000  0.768600  1.0  0.2494
  H  H79  1  0.365700  0.250000  0.268600  1.0  0.2494
  H  H80  1  0.884300  0.250000  0.231400  1.0  0.2483
  C  C81  1  0.069960  0.099840  0.125040  1.0  -0.1575
  C  C82  1  0.094360  0.056040  0.189240  1.0  -0.0255
  C  C83  1  0.122770  0.089120  0.228740  1.0  -0.2168
  C  C84  1  0.125190  0.169140  0.207280  1.0  0.2383
  C  C85  1  0.100800  0.213060  0.143540  1.0  -0.162
  C  C86  1  0.073460  0.179460  0.103220  1.0  -0.029
  C  C87  1  0.039090  0.063620  0.082400  1.0  0.6906
  C  C88  1  0.186580  0.926040  0.922800  1.0  0.6758
  C  C89  1  0.297960  0.881660  0.886620  1.0  -0.1493
  C  C90  1  0.352760  0.907560  0.813320  1.0  -0.0611
  C  C91  1  0.455040  0.864420  0.780500  1.0  -0.1493
  C  C92  1  0.506210  0.794920  0.819460  1.0  0.2373
  C  C93  1  0.450210  0.770760  0.893820  1.0  -0.2062
  C  C94  1  0.348100  0.812740  0.925960  1.0  -0.0253
  C  C95  1  0.805000  0.400160  0.125040  1.0  -0.1554
  C  C96  1  0.716400  0.443960  0.189240  1.0  -0.021
  C  C97  1  0.648490  0.410880  0.228740  1.0  -0.2187
  C  C98  1  0.667530  0.330860  0.207280  1.0  0.239
  C  C99  1  0.755660  0.286940  0.143540  1.0  -0.1525
  C  C100  1  0.823320  0.320540  0.103220  1.0  -0.0361
  C  C101  1  0.878510  0.436380  0.082400  1.0  0.6877
  C  C102  1  0.890620  0.573960  0.922800  1.0  0.6779
  C  C103  1  0.815420  0.618340  0.886620  1.0  -0.1503
  C  C104  1  0.833920  0.592440  0.813320  1.0  -0.0627
  C  C105  1  0.764460  0.635580  0.780500  1.0  -0.1519
  C  C106  1  0.674330  0.705080  0.819460  1.0  0.2367
  C  C107  1  0.655970  0.729240  0.893820  1.0  -0.2036
  C  C108  1  0.725940  0.687260  0.925960  1.0  -0.0176
  C  C109  1  0.330200  0.099840  0.374960  1.0  -0.1567
  C  C110  1  0.349600  0.056040  0.310760  1.0  -0.024
  C  C111  1  0.288110  0.089120  0.271260  1.0  -0.2159
  C  C112  1  0.205670  0.169140  0.292720  1.0  0.2392
  C  C113  1  0.186140  0.213060  0.356460  1.0  -0.159
  C  C114  1  0.247080  0.179460  0.396780  1.0  -0.0279
  C  C115  1  0.397290  0.063620  0.417600  1.0  0.6901
  C  C116  1  0.387380  0.926040  0.577200  1.0  0.6769
  C  C117  1  0.320380  0.881660  0.613380  1.0  -0.1472
  C  C118  1  0.239680  0.907560  0.686680  1.0  -0.0609
  C  C119  1  0.180540  0.864420  0.719500  1.0  -0.1487
  C  C120  1  0.198870  0.794920  0.680540  1.0  0.2342
  C  C121  1  0.279030  0.770760  0.606180  1.0  -0.2008
  C  C122  1  0.339160  0.812740  0.574040  1.0  -0.0271
  C  C123  1  0.294840  0.400160  0.374960  1.0  -0.1572
  C  C124  1  0.339640  0.443960  0.310760  1.0  -0.0215
  C  C125  1  0.440630  0.410880  0.271260  1.0  -0.2161
  C  C126  1  0.501610  0.330860  0.292720  1.0  0.2389
  C  C127  1  0.457400  0.286940  0.356460  1.0  -0.1534
  C  C128  1  0.356140  0.320540  0.396780  1.0  -0.0354
  C  C129  1  0.185110  0.436380  0.417600  1.0  0.6872
  C  C130  1  0.035420  0.573960  0.577200  1.0  0.678
  C  C131  1  0.066240  0.618340  0.613380  1.0  -0.1531
  C  C132  1  0.073640  0.592440  0.686680  1.0  -0.0624
  C  C133  1  0.099960  0.635580  0.719500  1.0  -0.1535
  C  C134  1  0.120590  0.705080  0.680540  1.0  0.2377
  C  C135  1  0.114790  0.729240  0.606180  1.0  -0.1989
  C  C136  1  0.086800  0.687260  0.574040  1.0  -0.0164
  C  C137  1  0.930040  0.900160  0.874960  1.0  -0.1575
  C  C138  1  0.905640  0.943960  0.810760  1.0  -0.0208
  C  C139  1  0.877230  0.910880  0.771260  1.0  -0.2158
  C  C140  1  0.874810  0.830860  0.792720  1.0  0.2386
  C  C141  1  0.899200  0.786940  0.856460  1.0  -0.1593
  C  C142  1  0.926540  0.820540  0.896780  1.0  -0.0291
  C  C143  1  0.960910  0.936380  0.917600  1.0  0.6905
  C  C144  1  0.813420  0.073960  0.077200  1.0  0.6759
  C  C145  1  0.702040  0.118340  0.113380  1.0  -0.1509
  C  C146  1  0.647240  0.092440  0.186680  1.0  -0.062
  C  C147  1  0.544960  0.135580  0.219500  1.0  -0.1487
  C  C148  1  0.493790  0.205080  0.180540  1.0  0.2339
  C  C149  1  0.549790  0.229240  0.106180  1.0  -0.1991
  C  C150  1  0.651900  0.187260  0.074040  1.0  -0.0274
  C  C151  1  0.195000  0.599840  0.874960  1.0  -0.1554
  C  C152  1  0.283600  0.556040  0.810760  1.0  -0.0264
  C  C153  1  0.351510  0.589120  0.771260  1.0  -0.2178
  C  C154  1  0.332470  0.669140  0.792720  1.0  0.2397
  C  C155  1  0.244340  0.713060  0.856460  1.0  -0.1537
  C  C156  1  0.176680  0.679460  0.896780  1.0  -0.0343
  C  C157  1  0.121490  0.563620  0.917600  1.0  0.6873
  C  C158  1  0.109380  0.426040  0.077200  1.0  0.6785
  C  C159  1  0.184580  0.381660  0.113380  1.0  -0.1507
  C  C160  1  0.166080  0.407560  0.186680  1.0  -0.0607
  C  C161  1  0.235540  0.364420  0.219500  1.0  -0.1534
  C  C162  1  0.325670  0.294920  0.180540  1.0  0.2375
  C  C163  1  0.344030  0.270760  0.106180  1.0  -0.2007
  C  C164  1  0.274060  0.312740  0.074040  1.0  -0.0159
  C  C165  1  0.669800  0.900160  0.625040  1.0  -0.1564
  C  C166  1  0.650400  0.943960  0.689240  1.0  -0.0196
  C  C167  1  0.711890  0.910880  0.728740  1.0  -0.216
  C  C168  1  0.794330  0.830860  0.707280  1.0  0.2384
  C  C169  1  0.813860  0.786940  0.643540  1.0  -0.1613
  C  C170  1  0.752920  0.820540  0.603220  1.0  -0.0301
  C  C171  1  0.602710  0.936380  0.582400  1.0  0.6911
  C  C172  1  0.612620  0.073960  0.422800  1.0  0.6758
  C  C173  1  0.679620  0.118340  0.386620  1.0  -0.1479
  C  C174  1  0.760320  0.092440  0.313320  1.0  -0.0629
  C  C175  1  0.819460  0.135580  0.280500  1.0  -0.1503
  C  C176  1  0.801130  0.205080  0.319460  1.0  0.2375
  C  C177  1  0.720970  0.229240  0.393820  1.0  -0.2063
  C  C178  1  0.660840  0.187260  0.425960  1.0  -0.025
  C  C179  1  0.705160  0.599840  0.625040  1.0  -0.1578
  C  C180  1  0.660360  0.556040  0.689240  1.0  -0.0243
  C  C181  1  0.559370  0.589120  0.728740  1.0  -0.219
  C  C182  1  0.498390  0.669140  0.707280  1.0  0.2388
  C  C183  1  0.542600  0.713060  0.643540  1.0  -0.1534
  C  C184  1  0.643860  0.679460  0.603220  1.0  -0.0357
  C  C185  1  0.814890  0.563620  0.582400  1.0  0.6866
  C  C186  1  0.964580  0.426040  0.422800  1.0  0.6783
  C  C187  1  0.933760  0.381660  0.386620  1.0  -0.1495
  C  C188  1  0.926360  0.407560  0.313320  1.0  -0.0613
  C  C189  1  0.900040  0.364420  0.280500  1.0  -0.153
  C  C190  1  0.879410  0.294920  0.319460  1.0  0.2365
  C  C191  1  0.885210  0.270760  0.393820  1.0  -0.2039
  C  C192  1  0.913200  0.312740  0.425960  1.0  -0.0177
  N  N193  1  0.145820  0.208360  0.250000  1.0  -0.3694
  N  N194  1  0.604180  0.291640  0.250000  1.0  -0.3703
  N  N195  1  0.854180  0.791640  0.750000  1.0  -0.3703
  N  N196  1  0.395820  0.708360  0.750000  1.0  -0.3694
  N  N197  1  0.608680  0.750000  0.782640  1.0  -0.3707
  N  N198  1  0.141320  0.750000  0.717360  1.0  -0.3671
  N  N199  1  0.391320  0.250000  0.217360  1.0  -0.3671
  N  N200  1  0.858680  0.250000  0.282640  1.0  -0.3707
  O  O201  1  0.143410  0.890260  0.983120  1.0  -0.5867
  O  O202  1  0.026520  0.996440  0.110720  1.0  -0.5809
  O  O203  1  0.026600  0.102820  0.020980  1.0  -0.5789
  O  O204  1  0.143380  0.995580  0.891660  1.0  -0.5779
  O  O205  1  0.873470  0.609740  0.983120  1.0  -0.5879
  O  O206  1  0.862760  0.503560  0.110720  1.0  -0.5816
  O  O207  1  0.952420  0.397180  0.020980  1.0  -0.5761
  O  O208  1  0.964960  0.504420  0.891660  1.0  -0.5772
  O  O209  1  0.466330  0.890260  0.516880  1.0  -0.5877
  O  O210  1  0.477040  0.996440  0.389280  1.0  -0.58
  O  O211  1  0.370580  0.102820  0.479020  1.0  -0.5796
  O  O212  1  0.361040  0.995580  0.608340  1.0  -0.5776
  O  O213  1  0.016790  0.609740  0.516880  1.0  -0.5877
  O  O214  1  0.133680  0.503560  0.389280  1.0  -0.5822
  O  O215  1  0.150400  0.397180  0.479020  1.0  -0.5776
  O  O216  1  0.030620  0.504420  0.608340  1.0  -0.5783
  O  O217  1  0.856590  0.109740  0.016880  1.0  -0.5872
  O  O218  1  0.973480  0.003560  0.889280  1.0  -0.58
  O  O219  1  0.973400  0.897180  0.979020  1.0  -0.5796
  O  O220  1  0.856620  0.004420  0.108340  1.0  -0.5785
  O  O221  1  0.126530  0.390260  0.016880  1.0  -0.5885
  O  O222  1  0.137240  0.496440  0.889280  1.0  -0.5825
  O  O223  1  0.047580  0.602820  0.979020  1.0  -0.5773
  O  O224  1  0.035040  0.495580  0.108340  1.0  -0.5765
  O  O225  1  0.533670  0.109740  0.483120  1.0  -0.5865
  O  O226  1  0.522960  0.003560  0.610720  1.0  -0.5801
  O  O227  1  0.629420  0.897180  0.520980  1.0  -0.5786
  O  O228  1  0.638960  0.004420  0.391660  1.0  -0.5786
  O  O229  1  0.983210  0.390260  0.483120  1.0  -0.5876
  O  O230  1  0.866320  0.496440  0.610720  1.0  -0.5822
  O  O231  1  0.849600  0.602820  0.520980  1.0  -0.5774
  O  O232  1  0.969380  0.495580  0.391660  1.0  -0.5767
