# generated using pymatgen
data_Zn3H14C26(NO3)4
_symmetry_space_group_name_H-M   'P 1'
_cell_length_a   15.17510000
_cell_length_b   15.17510000
_cell_length_c   22.56040000
_cell_angle_alpha   90.00000000
_cell_angle_beta   90.00000000
_cell_angle_gamma   90.00000000
_symmetry_Int_Tables_number   1
_chemical_formula_structural   Zn3H14C26(NO3)4
_chemical_formula_sum   'Zn12 H56 C104 N16 O48'
_cell_volume   5195.29148329
_cell_formula_units_Z   4
loop_
 _symmetry_equiv_pos_site_id
 _symmetry_equiv_pos_as_xyz
  1  'x, y, z'
loop_
 _atom_site_type_symbol
 _atom_site_label
 _atom_site_symmetry_multiplicity
 _atom_site_fract_x
 _atom_site_fract_y
 _atom_site_fract_z
 _atom_site_occupancy
 _atom_site_charge
  Zn  Zn1  1  0.757530  0.666790  0.856090  1.0  0.8853
  Zn  Zn2  1  0.242470  0.333210  0.356100  1.0  0.886
  Zn  Zn3  1  0.833210  0.257530  0.606090  1.0  0.8866
  Zn  Zn4  1  0.166790  0.742470  0.106100  1.0  0.8853
  Zn  Zn5  1  0.742470  0.166790  0.893910  1.0  0.8859
  Zn  Zn6  1  0.257530  0.833210  0.393910  1.0  0.8853
  Zn  Zn7  1  0.666790  0.757530  0.143910  1.0  0.8855
  Zn  Zn8  1  0.333210  0.242470  0.643910  1.0  0.8861
  Zn  Zn9  1  0.721280  0.721280  0.000000  1.0  1.1075
  Zn  Zn10  1  0.278720  0.278720  0.500000  1.0  1.1064
  Zn  Zn11  1  0.778720  0.221280  0.750000  1.0  1.1071
  Zn  Zn12  1  0.221280  0.778720  0.250000  1.0  1.106
  H  H13  1  0.994100  0.740900  0.037100  1.0  0.0888
  H  H14  1  0.036600  0.632800  0.877500  1.0  0.1071
  H  H15  1  0.187900  0.629000  0.898500  1.0  0.1371
  H  H16  1  0.324600  0.635500  0.923700  1.0  0.1284
  H  H17  1  0.469300  0.645700  0.955800  1.0  0.1166
  H  H18  1  0.379300  0.737300  0.112500  1.0  0.0876
  H  H19  1  0.569600  0.792900  0.905600  1.0  0.0262
  H  H20  1  0.005900  0.259100  0.537100  1.0  0.0892
  H  H21  1  0.963400  0.367200  0.377500  1.0  0.107
  H  H22  1  0.812100  0.371000  0.398500  1.0  0.1371
  H  H23  1  0.675400  0.364500  0.423700  1.0  0.1285
  H  H24  1  0.530700  0.354300  0.455800  1.0  0.1175
  H  H25  1  0.620700  0.262700  0.612500  1.0  0.0879
  H  H26  1  0.430400  0.207100  0.405600  1.0  0.0274
  H  H27  1  0.759100  0.494100  0.787100  1.0  0.0883
  H  H28  1  0.867200  0.536600  0.627500  1.0  0.1073
  H  H29  1  0.871000  0.687900  0.648500  1.0  0.1369
  H  H30  1  0.864500  0.824600  0.673700  1.0  0.1276
  H  H31  1  0.854300  0.969300  0.705800  1.0  0.1174
  H  H32  1  0.762700  0.879300  0.862500  1.0  0.0881
  H  H33  1  0.707100  0.069600  0.655600  1.0  0.0258
  H  H34  1  0.240900  0.505900  0.287100  1.0  0.0884
  H  H35  1  0.132800  0.463400  0.127500  1.0  0.1071
  H  H36  1  0.129000  0.312100  0.148500  1.0  0.1372
  H  H37  1  0.135500  0.175400  0.173700  1.0  0.1278
  H  H38  1  0.145700  0.030700  0.205800  1.0  0.1176
  H  H39  1  0.237300  0.120700  0.362500  1.0  0.0886
  H  H40  1  0.292900  0.930400  0.155600  1.0  0.0275
  H  H41  1  0.505900  0.240900  0.712900  1.0  0.0897
  H  H42  1  0.463400  0.132800  0.872500  1.0  0.1071
  H  H43  1  0.312100  0.129000  0.851500  1.0  0.1377
  H  H44  1  0.175400  0.135500  0.826300  1.0  0.1286
  H  H45  1  0.030700  0.145700  0.794200  1.0  0.1175
  H  H46  1  0.120700  0.237300  0.637500  1.0  0.0884
  H  H47  1  0.930400  0.292900  0.844400  1.0  0.0284
  H  H48  1  0.494100  0.759100  0.212900  1.0  0.0891
  H  H49  1  0.536600  0.867200  0.372500  1.0  0.1068
  H  H50  1  0.687900  0.871000  0.351500  1.0  0.1383
  H  H51  1  0.824600  0.864500  0.326300  1.0  0.129
  H  H52  1  0.969300  0.854300  0.294200  1.0  0.1164
  H  H53  1  0.879300  0.762700  0.137500  1.0  0.0886
  H  H54  1  0.069600  0.707100  0.344400  1.0  0.0266
  H  H55  1  0.740900  0.994100  0.962900  1.0  0.0887
  H  H56  1  0.632800  0.036600  0.122500  1.0  0.1069
  H  H57  1  0.629000  0.187900  0.101500  1.0  0.1378
  H  H58  1  0.635500  0.324600  0.076300  1.0  0.128
  H  H59  1  0.645700  0.469300  0.044200  1.0  0.1172
  H  H60  1  0.737300  0.379300  0.887500  1.0  0.0891
  H  H61  1  0.792900  0.569600  0.094400  1.0  0.0272
  H  H62  1  0.259100  0.005900  0.462900  1.0  0.0892
  H  H63  1  0.367200  0.963400  0.622500  1.0  0.1072
  H  H64  1  0.371000  0.812100  0.601500  1.0  0.138
  H  H65  1  0.364500  0.675400  0.576300  1.0  0.1281
  H  H66  1  0.354300  0.530700  0.544200  1.0  0.1177
  H  H67  1  0.262700  0.620700  0.387500  1.0  0.0887
  H  H68  1  0.207100  0.430400  0.594400  1.0  0.0266
  C  C69  1  0.033500  0.717300  0.008400  1.0  0.2141
  C  C70  1  0.998900  0.687700  0.955200  1.0  -0.203
  C  C71  1  0.057700  0.654100  0.914500  1.0  0.0405
  C  C72  1  0.147000  0.650800  0.926800  1.0  -0.1898
  C  C73  1  0.175000  0.680500  0.981900  1.0  0.197
  C  C74  1  0.268600  0.680400  0.999000  1.0  0.1755
  C  C75  1  0.336900  0.656400  0.962500  1.0  -0.1708
  C  C76  1  0.422300  0.662200  0.981300  1.0  0.0291
  C  C77  1  0.439600  0.692600  0.038300  1.0  -0.1951
  C  C78  1  0.368000  0.717000  0.073400  1.0  0.1959
  C  C79  1  0.901300  0.695300  0.942760  1.0  0.7053
  C  C80  1  0.532700  0.711800  0.057800  1.0  0.6854
  C  C81  1  0.612000  0.755700  0.887300  1.0  0.6204
  C  C82  1  0.966500  0.282700  0.508400  1.0  0.2156
  C  C83  1  0.001100  0.312300  0.455200  1.0  -0.2024
  C  C84  1  0.942300  0.345900  0.414500  1.0  0.0416
  C  C85  1  0.853000  0.349200  0.426800  1.0  -0.1908
  C  C86  1  0.825000  0.319500  0.481900  1.0  0.1967
  C  C87  1  0.731400  0.319600  0.499000  1.0  0.175
  C  C88  1  0.663100  0.343600  0.462500  1.0  -0.17
  C  C89  1  0.577700  0.337800  0.481300  1.0  0.0288
  C  C90  1  0.560400  0.307400  0.538300  1.0  -0.1945
  C  C91  1  0.632000  0.283000  0.573400  1.0  0.196
  C  C92  1  0.098700  0.304700  0.442760  1.0  0.7045
  C  C93  1  0.467300  0.288200  0.557800  1.0  0.6861
  C  C94  1  0.388000  0.244300  0.387300  1.0  0.6212
  C  C95  1  0.782700  0.533500  0.758400  1.0  0.2135
  C  C96  1  0.812300  0.498900  0.705200  1.0  -0.2022
  C  C97  1  0.845900  0.557700  0.664500  1.0  0.0413
  C  C98  1  0.849200  0.647000  0.676800  1.0  -0.1909
  C  C99  1  0.819500  0.675000  0.731900  1.0  0.1969
  C  C100  1  0.819600  0.768600  0.749000  1.0  0.1744
  C  C101  1  0.843600  0.836900  0.712500  1.0  -0.1697
  C  C102  1  0.837800  0.922300  0.731300  1.0  0.0251
  C  C103  1  0.807400  0.939600  0.788300  1.0  -0.1977
  C  C104  1  0.783000  0.868000  0.823400  1.0  0.198
  C  C105  1  0.804700  0.401300  0.692760  1.0  0.7048
  C  C106  1  0.788200  0.032700  0.807800  1.0  0.6882
  C  C107  1  0.744300  0.112000  0.637300  1.0  0.6212
  C  C108  1  0.217300  0.466500  0.258400  1.0  0.2137
  C  C109  1  0.187700  0.501100  0.205200  1.0  -0.2016
  C  C110  1  0.154100  0.442300  0.164500  1.0  0.0418
  C  C111  1  0.150800  0.353000  0.176800  1.0  -0.1908
  C  C112  1  0.180500  0.325000  0.231900  1.0  0.1967
  C  C113  1  0.180400  0.231400  0.249000  1.0  0.1747
  C  C114  1  0.156400  0.163100  0.212500  1.0  -0.1696
  C  C115  1  0.162200  0.077700  0.231300  1.0  0.0254
  C  C116  1  0.192600  0.060400  0.288300  1.0  -0.1963
  C  C117  1  0.217000  0.132000  0.323400  1.0  0.1983
  C  C118  1  0.195300  0.598700  0.192760  1.0  0.7048
  C  C119  1  0.211800  0.967300  0.307800  1.0  0.6882
  C  C120  1  0.255700  0.888000  0.137300  1.0  0.6198
  C  C121  1  0.466500  0.217300  0.741600  1.0  0.2147
  C  C122  1  0.501100  0.187700  0.794800  1.0  -0.202
  C  C123  1  0.442300  0.154100  0.835500  1.0  0.0415
  C  C124  1  0.353000  0.150800  0.823200  1.0  -0.1907
  C  C125  1  0.325000  0.180500  0.768100  1.0  0.1971
  C  C126  1  0.231400  0.180400  0.751000  1.0  0.1754
  C  C127  1  0.163100  0.156400  0.787500  1.0  -0.1704
  C  C128  1  0.077700  0.162200  0.768700  1.0  0.0267
  C  C129  1  0.060400  0.192600  0.711700  1.0  -0.1953
  C  C130  1  0.132000  0.217000  0.676600  1.0  0.1956
  C  C131  1  0.598700  0.195300  0.807240  1.0  0.7047
  C  C132  1  0.967300  0.211800  0.692200  1.0  0.6862
  C  C133  1  0.888000  0.255700  0.862700  1.0  0.6199
  C  C134  1  0.533500  0.782700  0.241600  1.0  0.2142
  C  C135  1  0.498900  0.812300  0.294800  1.0  -0.2024
  C  C136  1  0.557700  0.845900  0.335500  1.0  0.0401
  C  C137  1  0.647000  0.849200  0.323200  1.0  -0.1892
  C  C138  1  0.675000  0.819500  0.268100  1.0  0.1974
  C  C139  1  0.768600  0.819600  0.251000  1.0  0.176
  C  C140  1  0.836900  0.843600  0.287500  1.0  -0.1725
  C  C141  1  0.922300  0.837800  0.268700  1.0  0.0276
  C  C142  1  0.939600  0.807400  0.211700  1.0  -0.1943
  C  C143  1  0.868000  0.783000  0.176600  1.0  0.1951
  C  C144  1  0.401300  0.804700  0.307240  1.0  0.7053
  C  C145  1  0.032700  0.788200  0.192200  1.0  0.6849
  C  C146  1  0.112000  0.744300  0.362700  1.0  0.6199
  C  C147  1  0.717300  0.033500  0.991600  1.0  0.2133
  C  C148  1  0.687700  0.998900  0.044800  1.0  -0.2013
  C  C149  1  0.654100  0.057700  0.085500  1.0  0.0407
  C  C150  1  0.650800  0.147000  0.073200  1.0  -0.1927
  C  C151  1  0.680500  0.175000  0.018100  1.0  0.1977
  C  C152  1  0.680400  0.268600  0.001000  1.0  0.1748
  C  C153  1  0.656400  0.336900  0.037500  1.0  -0.1722
  C  C154  1  0.662200  0.422300  0.018700  1.0  0.0221
  C  C155  1  0.692600  0.439600  0.961700  1.0  -0.1959
  C  C156  1  0.717000  0.368000  0.926600  1.0  0.1974
  C  C157  1  0.695300  0.901300  0.057240  1.0  0.7048
  C  C158  1  0.711800  0.532700  0.942200  1.0  0.6882
  C  C159  1  0.755700  0.612000  0.112700  1.0  0.6192
  C  C160  1  0.282700  0.966500  0.491600  1.0  0.2135
  C  C161  1  0.312300  0.001100  0.544800  1.0  -0.201
  C  C162  1  0.345900  0.942300  0.585500  1.0  0.0417
  C  C163  1  0.349200  0.853000  0.573200  1.0  -0.1894
  C  C164  1  0.319500  0.825000  0.518100  1.0  0.1974
  C  C165  1  0.319600  0.731400  0.501000  1.0  0.1751
  C  C166  1  0.343600  0.663100  0.537500  1.0  -0.1706
  C  C167  1  0.337800  0.577700  0.518700  1.0  0.0243
  C  C168  1  0.307400  0.560400  0.461700  1.0  -0.1967
  C  C169  1  0.283000  0.632000  0.426600  1.0  0.1974
  C  C170  1  0.304700  0.098700  0.557240  1.0  0.705
  C  C171  1  0.288200  0.467300  0.442200  1.0  0.6878
  C  C172  1  0.244300  0.388000  0.612700  1.0  0.619
  N  N173  1  0.117300  0.714300  0.021200  1.0  -0.312
  N  N174  1  0.284800  0.713100  0.055000  1.0  -0.3212
  N  N175  1  0.882700  0.285700  0.521200  1.0  -0.3124
  N  N176  1  0.715200  0.286900  0.555000  1.0  -0.3206
  N  N177  1  0.785700  0.617300  0.771200  1.0  -0.313
  N  N178  1  0.786900  0.784800  0.805000  1.0  -0.3221
  N  N179  1  0.214300  0.382700  0.271200  1.0  -0.3121
  N  N180  1  0.213100  0.215200  0.305000  1.0  -0.3219
  N  N181  1  0.382700  0.214300  0.728800  1.0  -0.3117
  N  N182  1  0.215200  0.213100  0.695000  1.0  -0.3211
  N  N183  1  0.617300  0.785700  0.228800  1.0  -0.3114
  N  N184  1  0.784800  0.786900  0.195000  1.0  -0.3213
  N  N185  1  0.714300  0.117300  0.978800  1.0  -0.3121
  N  N186  1  0.713100  0.284800  0.945000  1.0  -0.3222
  N  N187  1  0.285700  0.882700  0.478800  1.0  -0.3118
  N  N188  1  0.286900  0.715200  0.445000  1.0  -0.322
  O  O189  1  0.854000  0.726000  0.982270  1.0  -0.5818
  O  O190  1  0.878090  0.666200  0.892520  1.0  -0.6059
  O  O191  1  0.585000  0.721800  0.014500  1.0  -0.6157
  O  O192  1  0.545870  0.719620  0.112280  1.0  -0.5669
  O  O193  1  0.686520  0.745070  0.911770  1.0  -0.6361
  O  O194  1  0.593300  0.718000  0.839530  1.0  -0.5977
  O  O195  1  0.146000  0.274000  0.482270  1.0  -0.5822
  O  O196  1  0.121910  0.333800  0.392520  1.0  -0.6065
  O  O197  1  0.415000  0.278200  0.514500  1.0  -0.6149
  O  O198  1  0.454130  0.280380  0.612280  1.0  -0.5672
  O  O199  1  0.313480  0.254930  0.411770  1.0  -0.6349
  O  O200  1  0.406700  0.282000  0.339530  1.0  -0.5965
  O  O201  1  0.774000  0.354000  0.732270  1.0  -0.5824
  O  O202  1  0.833800  0.378090  0.642520  1.0  -0.6053
  O  O203  1  0.778200  0.085000  0.764500  1.0  -0.6156
  O  O204  1  0.780380  0.045870  0.862280  1.0  -0.566
  O  O205  1  0.754930  0.186520  0.661770  1.0  -0.6366
  O  O206  1  0.782000  0.093300  0.589530  1.0  -0.5934
  O  O207  1  0.226000  0.646000  0.232270  1.0  -0.5818
  O  O208  1  0.166200  0.621910  0.142520  1.0  -0.6049
  O  O209  1  0.221800  0.915000  0.264500  1.0  -0.6152
  O  O210  1  0.219620  0.954130  0.362280  1.0  -0.5676
  O  O211  1  0.245070  0.813480  0.161770  1.0  -0.6362
  O  O212  1  0.218000  0.906700  0.089530  1.0  -0.5948
  O  O213  1  0.646000  0.226000  0.767730  1.0  -0.5812
  O  O214  1  0.621910  0.166200  0.857480  1.0  -0.6066
  O  O215  1  0.915000  0.221800  0.735500  1.0  -0.6154
  O  O216  1  0.954130  0.219620  0.637720  1.0  -0.5674
  O  O217  1  0.813480  0.245070  0.838230  1.0  -0.6347
  O  O218  1  0.906700  0.218000  0.910470  1.0  -0.5985
  O  O219  1  0.354000  0.774000  0.267730  1.0  -0.5812
  O  O220  1  0.378090  0.833800  0.357480  1.0  -0.6072
  O  O221  1  0.085000  0.778200  0.235500  1.0  -0.6167
  O  O222  1  0.045870  0.780380  0.137720  1.0  -0.5682
  O  O223  1  0.186520  0.754930  0.338230  1.0  -0.6352
  O  O224  1  0.093300  0.782000  0.410470  1.0  -0.5991
  O  O225  1  0.726000  0.854000  0.017730  1.0  -0.5808
  O  O226  1  0.666200  0.878090  0.107480  1.0  -0.6057
  O  O227  1  0.721800  0.585000  0.985500  1.0  -0.6156
  O  O228  1  0.719620  0.545870  0.887720  1.0  -0.5677
  O  O229  1  0.745070  0.686520  0.088230  1.0  -0.6355
  O  O230  1  0.718000  0.593300  0.160470  1.0  -0.5987
  O  O231  1  0.274000  0.146000  0.517730  1.0  -0.5822
  O  O232  1  0.333800  0.121910  0.607480  1.0  -0.6057
  O  O233  1  0.278200  0.415000  0.485500  1.0  -0.6166
  O  O234  1  0.280380  0.454130  0.387720  1.0  -0.5673
  O  O235  1  0.254930  0.313480  0.588230  1.0  -0.6357
  O  O236  1  0.282000  0.406700  0.660470  1.0  -0.595
