# generated using pymatgen
data_CuH10C14NO4
_symmetry_space_group_name_H-M   'P 1'
_cell_length_a   16.63070000
_cell_length_b   16.63070000
_cell_length_c   16.30710000
_cell_angle_alpha   90.00000000
_cell_angle_beta   90.00000000
_cell_angle_gamma   90.00000000
_symmetry_Int_Tables_number   1
_chemical_formula_structural   CuH10C14NO4
_chemical_formula_sum   'Cu8 H80 C112 N8 O32'
_cell_volume   4510.22069388
_cell_formula_units_Z   8
loop_
 _symmetry_equiv_pos_site_id
 _symmetry_equiv_pos_as_xyz
  1  'x, y, z'
loop_
 _atom_site_type_symbol
 _atom_site_label
 _atom_site_symmetry_multiplicity
 _atom_site_fract_x
 _atom_site_fract_y
 _atom_site_fract_z
 _atom_site_occupancy
 _atom_site_charge
  Cu  Cu1  1  0.944130  0.555870  0.750000  1.0  0.9165
  Cu  Cu2  1  0.555870  0.944130  0.250000  1.0  0.9116
  Cu  Cu3  1  0.444130  0.444130  0.000000  1.0  0.9162
  Cu  Cu4  1  0.055870  0.055870  0.500000  1.0  0.9133
  Cu  Cu5  1  0.555870  0.555870  0.000000  1.0  0.9133
  Cu  Cu6  1  0.944130  0.944130  0.500000  1.0  0.9162
  Cu  Cu7  1  0.055870  0.444130  0.750000  1.0  0.9116
  Cu  Cu8  1  0.444130  0.055870  0.250000  1.0  0.9165
  H  H9  1  0.944200  0.289000  0.560300  1.0  0.0926
  H  H10  1  0.874900  0.230900  0.452500  1.0  0.1073
  H  H11  1  0.731100  0.424100  0.445700  1.0  0.1022
  H  H12  1  0.798600  0.478700  0.552100  1.0  0.1017
  H  H13  1  0.715200  0.249900  0.401400  1.0  0.219
  H  H14  1  0.444200  0.789000  0.060300  1.0  0.0926
  H  H15  1  0.374900  0.730900  0.952500  1.0  0.1073
  H  H16  1  0.231100  0.924100  0.945700  1.0  0.1022
  H  H17  1  0.298600  0.978700  0.052100  1.0  0.1017
  H  H18  1  0.215200  0.749900  0.901400  1.0  0.219
  H  H19  1  0.555800  0.211000  0.060300  1.0  0.092
  H  H20  1  0.625100  0.269100  0.952500  1.0  0.1073
  H  H21  1  0.768900  0.075900  0.945700  1.0  0.1016
  H  H22  1  0.701400  0.021300  0.052100  1.0  0.101
  H  H23  1  0.784800  0.250100  0.901400  1.0  0.2185
  H  H24  1  0.055800  0.711000  0.560300  1.0  0.092
  H  H25  1  0.125100  0.769100  0.452500  1.0  0.1073
  H  H26  1  0.268900  0.575900  0.445700  1.0  0.1016
  H  H27  1  0.201400  0.521300  0.552100  1.0  0.101
  H  H28  1  0.284800  0.750100  0.401400  1.0  0.2185
  H  H29  1  0.711000  0.444200  0.810300  1.0  0.0918
  H  H30  1  0.769100  0.374900  0.702500  1.0  0.1067
  H  H31  1  0.575900  0.231100  0.695700  1.0  0.1014
  H  H32  1  0.521300  0.298600  0.802100  1.0  0.101
  H  H33  1  0.750100  0.215200  0.651400  1.0  0.2174
  H  H34  1  0.211000  0.944200  0.310300  1.0  0.0918
  H  H35  1  0.269100  0.874900  0.202500  1.0  0.1067
  H  H36  1  0.075900  0.731100  0.195700  1.0  0.1014
  H  H37  1  0.021300  0.798600  0.302100  1.0  0.101
  H  H38  1  0.250100  0.715200  0.151400  1.0  0.2174
  H  H39  1  0.789000  0.055800  0.310300  1.0  0.0915
  H  H40  1  0.730900  0.125100  0.202500  1.0  0.1068
  H  H41  1  0.924100  0.268900  0.195700  1.0  0.1017
  H  H42  1  0.978700  0.201400  0.302100  1.0  0.101
  H  H43  1  0.749900  0.284800  0.151400  1.0  0.2172
  H  H44  1  0.289000  0.555800  0.810300  1.0  0.0915
  H  H45  1  0.230900  0.625100  0.702500  1.0  0.1068
  H  H46  1  0.424100  0.768900  0.695700  1.0  0.1017
  H  H47  1  0.478700  0.701400  0.802100  1.0  0.101
  H  H48  1  0.249900  0.784800  0.651400  1.0  0.2172
  H  H49  1  0.555800  0.289000  0.189700  1.0  0.0927
  H  H50  1  0.625100  0.230900  0.297500  1.0  0.1063
  H  H51  1  0.768900  0.424100  0.304300  1.0  0.1019
  H  H52  1  0.701400  0.478700  0.197900  1.0  0.1017
  H  H53  1  0.784800  0.249900  0.348600  1.0  0.2182
  H  H54  1  0.055800  0.789000  0.689700  1.0  0.0927
  H  H55  1  0.125100  0.730900  0.797500  1.0  0.1063
  H  H56  1  0.268900  0.924100  0.804300  1.0  0.1019
  H  H57  1  0.201400  0.978700  0.697900  1.0  0.1017
  H  H58  1  0.284800  0.749900  0.848600  1.0  0.2182
  H  H59  1  0.944200  0.211000  0.689700  1.0  0.0925
  H  H60  1  0.874900  0.269100  0.797500  1.0  0.1065
  H  H61  1  0.731100  0.075900  0.804300  1.0  0.1014
  H  H62  1  0.798600  0.021300  0.697900  1.0  0.1008
  H  H63  1  0.715200  0.250100  0.848600  1.0  0.2197
  H  H64  1  0.444200  0.711000  0.189700  1.0  0.0925
  H  H65  1  0.374900  0.769100  0.297500  1.0  0.1065
  H  H66  1  0.231100  0.575900  0.304300  1.0  0.1014
  H  H67  1  0.298600  0.521300  0.197900  1.0  0.1008
  H  H68  1  0.215200  0.750100  0.348600  1.0  0.2197
  H  H69  1  0.789000  0.444200  0.939700  1.0  0.0918
  H  H70  1  0.730900  0.374900  0.047500  1.0  0.1062
  H  H71  1  0.924100  0.231100  0.054300  1.0  0.101
  H  H72  1  0.978700  0.298600  0.947900  1.0  0.1009
  H  H73  1  0.749900  0.215200  0.098600  1.0  0.2166
  H  H74  1  0.289000  0.944200  0.439700  1.0  0.0918
  H  H75  1  0.230900  0.874900  0.547500  1.0  0.1062
  H  H76  1  0.424100  0.731100  0.554300  1.0  0.101
  H  H77  1  0.478700  0.798600  0.447900  1.0  0.1009
  H  H78  1  0.249900  0.715200  0.598600  1.0  0.2166
  H  H79  1  0.711000  0.055800  0.439700  1.0  0.0924
  H  H80  1  0.769100  0.125100  0.547500  1.0  0.1073
  H  H81  1  0.575900  0.268900  0.554300  1.0  0.1017
  H  H82  1  0.521300  0.201400  0.447900  1.0  0.1011
  H  H83  1  0.750100  0.284800  0.598600  1.0  0.2171
  H  H84  1  0.211000  0.555800  0.939700  1.0  0.0924
  H  H85  1  0.269100  0.625100  0.047500  1.0  0.1073
  H  H86  1  0.075900  0.768900  0.054300  1.0  0.1017
  H  H87  1  0.021300  0.701400  0.947900  1.0  0.1011
  H  H88  1  0.250100  0.784800  0.098600  1.0  0.2171
  C  C89  1  0.923400  0.428200  0.637690  1.0  0.6804
  C  C90  1  0.879300  0.390200  0.567390  1.0  -0.1589
  C  C91  1  0.901000  0.316100  0.536900  1.0  -0.053
  C  C92  1  0.859900  0.281100  0.472300  1.0  -0.2029
  C  C93  1  0.795400  0.322800  0.437200  1.0  0.1666
  C  C94  1  0.774200  0.396400  0.468600  1.0  -0.1689
  C  C95  1  0.814600  0.429000  0.531800  1.0  -0.0503
  C  C96  1  0.423400  0.928200  0.137690  1.0  0.6804
  C  C97  1  0.379300  0.890200  0.067390  1.0  -0.1589
  C  C98  1  0.401000  0.816100  0.036900  1.0  -0.053
  C  C99  1  0.359900  0.781100  0.972300  1.0  -0.2029
  C  C100  1  0.295400  0.822800  0.937200  1.0  0.1666
  C  C101  1  0.274200  0.896400  0.968600  1.0  -0.1689
  C  C102  1  0.314600  0.929000  0.031800  1.0  -0.0503
  C  C103  1  0.576600  0.071800  0.137690  1.0  0.6805
  C  C104  1  0.620700  0.109800  0.067390  1.0  -0.1603
  C  C105  1  0.599000  0.183900  0.036900  1.0  -0.0542
  C  C106  1  0.640100  0.218900  0.972300  1.0  -0.2038
  C  C107  1  0.704600  0.177200  0.937200  1.0  0.1678
  C  C108  1  0.725800  0.103600  0.968600  1.0  -0.1736
  C  C109  1  0.685400  0.071000  0.031800  1.0  -0.0599
  C  C110  1  0.076600  0.571800  0.637690  1.0  0.6805
  C  C111  1  0.120700  0.609800  0.567390  1.0  -0.1603
  C  C112  1  0.099000  0.683900  0.536900  1.0  -0.0542
  C  C113  1  0.140100  0.718900  0.472300  1.0  -0.2038
  C  C114  1  0.204600  0.677200  0.437200  1.0  0.1678
  C  C115  1  0.225800  0.603600  0.468600  1.0  -0.1736
  C  C116  1  0.185400  0.571000  0.531800  1.0  -0.0599
  C  C117  1  0.571800  0.423400  0.887690  1.0  0.6806
  C  C118  1  0.609800  0.379300  0.817390  1.0  -0.1593
  C  C119  1  0.683900  0.401000  0.786900  1.0  -0.0528
  C  C120  1  0.718900  0.359900  0.722300  1.0  -0.2012
  C  C121  1  0.677200  0.295400  0.687200  1.0  0.1675
  C  C122  1  0.603600  0.274200  0.718600  1.0  -0.1658
  C  C123  1  0.571000  0.314600  0.781800  1.0  -0.0492
  C  C124  1  0.071800  0.923400  0.387690  1.0  0.6806
  C  C125  1  0.109800  0.879300  0.317390  1.0  -0.1593
  C  C126  1  0.183900  0.901000  0.286900  1.0  -0.0528
  C  C127  1  0.218900  0.859900  0.222300  1.0  -0.2012
  C  C128  1  0.177200  0.795400  0.187200  1.0  0.1675
  C  C129  1  0.103600  0.774200  0.218600  1.0  -0.1658
  C  C130  1  0.071000  0.814600  0.281800  1.0  -0.0492
  C  C131  1  0.928200  0.076600  0.387690  1.0  0.6807
  C  C132  1  0.890200  0.120700  0.317390  1.0  -0.161
  C  C133  1  0.816100  0.099000  0.286900  1.0  -0.0568
  C  C134  1  0.781100  0.140100  0.222300  1.0  -0.2012
  C  C135  1  0.822800  0.204600  0.187200  1.0  0.1689
  C  C136  1  0.896400  0.225800  0.218600  1.0  -0.1659
  C  C137  1  0.929000  0.185400  0.281800  1.0  -0.0508
  C  C138  1  0.428200  0.576600  0.887690  1.0  0.6807
  C  C139  1  0.390200  0.620700  0.817390  1.0  -0.161
  C  C140  1  0.316100  0.599000  0.786900  1.0  -0.0568
  C  C141  1  0.281100  0.640100  0.722300  1.0  -0.2012
  C  C142  1  0.322800  0.704600  0.687200  1.0  0.1689
  C  C143  1  0.396400  0.725800  0.718600  1.0  -0.1659
  C  C144  1  0.429000  0.685400  0.781800  1.0  -0.0508
  C  C145  1  0.576600  0.428200  0.112310  1.0  0.6809
  C  C146  1  0.620700  0.390200  0.182610  1.0  -0.1604
  C  C147  1  0.599000  0.316100  0.213100  1.0  -0.0531
  C  C148  1  0.640100  0.281100  0.277700  1.0  -0.1999
  C  C149  1  0.704600  0.322800  0.312800  1.0  0.1662
  C  C150  1  0.725800  0.396400  0.281400  1.0  -0.169
  C  C151  1  0.685400  0.429000  0.218200  1.0  -0.0516
  C  C152  1  0.076600  0.928200  0.612310  1.0  0.6809
  C  C153  1  0.120700  0.890200  0.682610  1.0  -0.1604
  C  C154  1  0.099000  0.816100  0.713100  1.0  -0.0531
  C  C155  1  0.140100  0.781100  0.777700  1.0  -0.1999
  C  C156  1  0.204600  0.822800  0.812800  1.0  0.1662
  C  C157  1  0.225800  0.896400  0.781400  1.0  -0.169
  C  C158  1  0.185400  0.929000  0.718200  1.0  -0.0516
  C  C159  1  0.923400  0.071800  0.612310  1.0  0.6802
  C  C160  1  0.879300  0.109800  0.682610  1.0  -0.1595
  C  C161  1  0.901000  0.183900  0.713100  1.0  -0.0539
  C  C162  1  0.859900  0.218900  0.777700  1.0  -0.1994
  C  C163  1  0.795400  0.177200  0.812800  1.0  0.1681
  C  C164  1  0.774200  0.103600  0.781400  1.0  -0.1699
  C  C165  1  0.814600  0.071000  0.718200  1.0  -0.0601
  C  C166  1  0.423400  0.571800  0.112310  1.0  0.6802
  C  C167  1  0.379300  0.609800  0.182610  1.0  -0.1595
  C  C168  1  0.401000  0.683900  0.213100  1.0  -0.0539
  C  C169  1  0.359900  0.718900  0.277700  1.0  -0.1994
  C  C170  1  0.295400  0.677200  0.312800  1.0  0.1681
  C  C171  1  0.274200  0.603600  0.281400  1.0  -0.1699
  C  C172  1  0.314600  0.571000  0.218200  1.0  -0.0601
  C  C173  1  0.928200  0.423400  0.862310  1.0  0.68
  C  C174  1  0.890200  0.379300  0.932610  1.0  -0.1593
  C  C175  1  0.816100  0.401000  0.963100  1.0  -0.0508
  C  C176  1  0.781100  0.359900  0.027700  1.0  -0.1981
  C  C177  1  0.822800  0.295400  0.062800  1.0  0.1672
  C  C178  1  0.896400  0.274200  0.031400  1.0  -0.165
  C  C179  1  0.929000  0.314600  0.968200  1.0  -0.0519
  C  C180  1  0.428200  0.923400  0.362310  1.0  0.68
  C  C181  1  0.390200  0.879300  0.432610  1.0  -0.1593
  C  C182  1  0.316100  0.901000  0.463100  1.0  -0.0508
  C  C183  1  0.281100  0.859900  0.527700  1.0  -0.1981
  C  C184  1  0.322800  0.795400  0.562800  1.0  0.1672
  C  C185  1  0.396400  0.774200  0.531400  1.0  -0.165
  C  C186  1  0.429000  0.814600  0.468200  1.0  -0.0519
  C  C187  1  0.571800  0.076600  0.362310  1.0  0.6804
  C  C188  1  0.609800  0.120700  0.432610  1.0  -0.1622
  C  C189  1  0.683900  0.099000  0.463100  1.0  -0.0589
  C  C190  1  0.718900  0.140100  0.527700  1.0  -0.1994
  C  C191  1  0.677200  0.204600  0.562800  1.0  0.1681
  C  C192  1  0.603600  0.225800  0.531400  1.0  -0.1657
  C  C193  1  0.571000  0.185400  0.468200  1.0  -0.0495
  C  C194  1  0.071800  0.576600  0.862310  1.0  0.6804
  C  C195  1  0.109800  0.620700  0.932610  1.0  -0.1622
  C  C196  1  0.183900  0.599000  0.963100  1.0  -0.0589
  C  C197  1  0.218900  0.640100  0.027700  1.0  -0.1994
  C  C198  1  0.177200  0.704600  0.062800  1.0  0.1681
  C  C199  1  0.103600  0.725800  0.031400  1.0  -0.1657
  C  C200  1  0.071000  0.685400  0.968200  1.0  -0.0495
  N  N201  1  0.750000  0.282400  0.375000  1.0  -0.2183
  N  N202  1  0.250000  0.782400  0.875000  1.0  -0.2183
  N  N203  1  0.750000  0.217600  0.875000  1.0  -0.2195
  N  N204  1  0.250000  0.717600  0.375000  1.0  -0.2195
  N  N205  1  0.717600  0.250000  0.625000  1.0  -0.2191
  N  N206  1  0.217600  0.750000  0.125000  1.0  -0.2191
  N  N207  1  0.782400  0.250000  0.125000  1.0  -0.2202
  N  N208  1  0.282400  0.750000  0.625000  1.0  -0.2202
  O  O209  1  0.895220  0.493040  0.663600  1.0  -0.5878
  O  O210  1  0.984290  0.393780  0.666030  1.0  -0.5902
  O  O211  1  0.395220  0.993040  0.163600  1.0  -0.5878
  O  O212  1  0.484290  0.893780  0.166030  1.0  -0.5902
  O  O213  1  0.604780  0.006960  0.163600  1.0  -0.5885
  O  O214  1  0.515710  0.106220  0.166030  1.0  -0.592
  O  O215  1  0.104780  0.506960  0.663600  1.0  -0.5885
  O  O216  1  0.015710  0.606220  0.666030  1.0  -0.592
  O  O217  1  0.506960  0.395220  0.913600  1.0  -0.588
  O  O218  1  0.606220  0.484290  0.916030  1.0  -0.5913
  O  O219  1  0.006960  0.895220  0.413600  1.0  -0.588
  O  O220  1  0.106220  0.984290  0.416030  1.0  -0.5913
  O  O221  1  0.993040  0.104780  0.413600  1.0  -0.5877
  O  O222  1  0.893780  0.015710  0.416030  1.0  -0.5912
  O  O223  1  0.493040  0.604780  0.913600  1.0  -0.5877
  O  O224  1  0.393780  0.515710  0.916030  1.0  -0.5912
  O  O225  1  0.604780  0.493040  0.086400  1.0  -0.5882
  O  O226  1  0.515710  0.393780  0.083970  1.0  -0.591
  O  O227  1  0.104780  0.993040  0.586400  1.0  -0.5882
  O  O228  1  0.015710  0.893780  0.583970  1.0  -0.591
  O  O229  1  0.895220  0.006960  0.586400  1.0  -0.5885
  O  O230  1  0.984290  0.106220  0.583970  1.0  -0.5913
  O  O231  1  0.395220  0.506960  0.086400  1.0  -0.5885
  O  O232  1  0.484290  0.606220  0.083970  1.0  -0.5913
  O  O233  1  0.993040  0.395220  0.836400  1.0  -0.5878
  O  O234  1  0.893780  0.484290  0.833970  1.0  -0.5912
  O  O235  1  0.493040  0.895220  0.336400  1.0  -0.5878
  O  O236  1  0.393780  0.984290  0.333970  1.0  -0.5912
  O  O237  1  0.506960  0.104780  0.336400  1.0  -0.588
  O  O238  1  0.606220  0.015710  0.333970  1.0  -0.5922
  O  O239  1  0.006960  0.604780  0.836400  1.0  -0.588
  O  O240  1  0.106220  0.515710  0.833970  1.0  -0.5922
