# generated using pymatgen
data_Cd5H4C20(NO2)8
_symmetry_space_group_name_H-M   'P 1'
_cell_length_a   14.26800000
_cell_length_b   15.72100000
_cell_length_c   16.01700000
_cell_angle_alpha   90.00000000
_cell_angle_beta   90.00000000
_cell_angle_gamma   90.00000000
_symmetry_Int_Tables_number   1
_chemical_formula_structural   Cd5H4C20(NO2)8
_chemical_formula_sum   'Cd20 H16 C80 N32 O64'
_cell_volume   3592.72887088
_cell_formula_units_Z   4
loop_
 _symmetry_equiv_pos_site_id
 _symmetry_equiv_pos_as_xyz
  1  'x, y, z'
loop_
 _atom_site_type_symbol
 _atom_site_label
 _atom_site_symmetry_multiplicity
 _atom_site_fract_x
 _atom_site_fract_y
 _atom_site_fract_z
 _atom_site_occupancy
 _atom_site_charge
  Cd  Cd1  1  0.125180  0.019310  0.543640  1.0  1.0321
  Cd  Cd2  1  0.394160  0.934850  0.540870  1.0  1.0403
  Cd  Cd3  1  0.374820  0.519310  0.456360  1.0  1.0325
  Cd  Cd4  1  0.105840  0.434850  0.459130  1.0  1.04
  Cd  Cd5  1  0.874820  0.980690  0.043640  1.0  1.032
  Cd  Cd6  1  0.605840  0.065150  0.040870  1.0  1.0397
  Cd  Cd7  1  0.625180  0.480690  0.956360  1.0  1.0325
  Cd  Cd8  1  0.894160  0.565150  0.959130  1.0  1.0396
  Cd  Cd9  1  0.874820  0.980690  0.456360  1.0  1.0324
  Cd  Cd10  1  0.605840  0.065150  0.459130  1.0  1.0395
  Cd  Cd11  1  0.625180  0.480690  0.543640  1.0  1.0321
  Cd  Cd12  1  0.894160  0.565150  0.540870  1.0  1.0397
  Cd  Cd13  1  0.125180  0.019310  0.956360  1.0  1.0325
  Cd  Cd14  1  0.394160  0.934850  0.959130  1.0  1.04
  Cd  Cd15  1  0.374820  0.519310  0.043640  1.0  1.0321
  Cd  Cd16  1  0.105840  0.434850  0.040870  1.0  1.0402
  Cd  Cd17  1  0.736420  0.036850  0.750000  1.0  1.2538
  Cd  Cd18  1  0.763580  0.536850  0.250000  1.0  1.2547
  Cd  Cd19  1  0.263580  0.963150  0.250000  1.0  1.255
  Cd  Cd20  1  0.236420  0.463150  0.750000  1.0  1.254
  H  H21  1  0.026900  0.223000  0.516300  1.0  0.076
  H  H22  1  0.473100  0.723000  0.483700  1.0  0.0759
  H  H23  1  0.973100  0.777000  0.016300  1.0  0.0763
  H  H24  1  0.526900  0.277000  0.983700  1.0  0.0755
  H  H25  1  0.973100  0.777000  0.483700  1.0  0.0759
  H  H26  1  0.526900  0.277000  0.516300  1.0  0.076
  H  H27  1  0.026900  0.223000  0.983700  1.0  0.0756
  H  H28  1  0.473100  0.723000  0.016300  1.0  0.0762
  H  H29  1  0.324400  0.885500  0.750000  1.0  0.0739
  H  H30  1  0.205200  0.018800  0.750000  1.0  0.053
  H  H31  1  0.175600  0.385500  0.250000  1.0  0.0741
  H  H32  1  0.294800  0.518800  0.250000  1.0  0.0539
  H  H33  1  0.675600  0.114500  0.250000  1.0  0.0757
  H  H34  1  0.794800  0.981200  0.250000  1.0  0.0539
  H  H35  1  0.824400  0.614500  0.750000  1.0  0.075
  H  H36  1  0.705200  0.481200  0.750000  1.0  0.053
  C  C37  1  0.090500  0.224200  0.503900  1.0  0.3318
  C  C38  1  0.232500  0.183600  0.485200  1.0  0.0053
  C  C39  1  0.226400  0.269500  0.466200  1.0  0.0043
  C  C40  1  0.312200  0.124400  0.484500  1.0  0.6033
  C  C41  1  0.298700  0.332000  0.442500  1.0  0.609
  C  C42  1  0.491700  0.996200  0.706500  1.0  -0.0276
  C  C43  1  0.551400  0.039000  0.642500  1.0  0.6823
  C  C44  1  0.999400  0.021700  0.706300  1.0  -0.021
  C  C45  1  0.925300  0.020800  0.640700  1.0  0.6943
  C  C46  1  0.409500  0.724200  0.496100  1.0  0.3321
  C  C47  1  0.267500  0.683600  0.514800  1.0  0.0051
  C  C48  1  0.273600  0.769500  0.533800  1.0  0.004
  C  C49  1  0.187800  0.624400  0.515500  1.0  0.6031
  C  C50  1  0.201300  0.832000  0.557500  1.0  0.6081
  C  C51  1  0.008300  0.496200  0.293500  1.0  -0.0285
  C  C52  1  0.948600  0.539000  0.357500  1.0  0.6837
  C  C53  1  0.500600  0.521700  0.293700  1.0  -0.021
  C  C54  1  0.574700  0.520800  0.359300  1.0  0.695
  C  C55  1  0.909500  0.775800  0.003900  1.0  0.3323
  C  C56  1  0.767500  0.816400  0.985200  1.0  0.0046
  C  C57  1  0.773600  0.730500  0.966200  1.0  0.0042
  C  C58  1  0.687800  0.875600  0.984500  1.0  0.6021
  C  C59  1  0.701300  0.668000  0.942500  1.0  0.6082
  C  C60  1  0.508300  0.003800  0.206500  1.0  -0.0279
  C  C61  1  0.448600  0.961000  0.142500  1.0  0.6833
  C  C62  1  0.000600  0.978300  0.206300  1.0  -0.0207
  C  C63  1  0.074700  0.979200  0.140700  1.0  0.6952
  C  C64  1  0.590500  0.275800  0.996100  1.0  0.3317
  C  C65  1  0.732500  0.316400  0.014800  1.0  0.0053
  C  C66  1  0.726400  0.230500  0.033800  1.0  0.0041
  C  C67  1  0.812200  0.375600  0.015500  1.0  0.6023
  C  C68  1  0.798700  0.168000  0.057500  1.0  0.6107
  C  C69  1  0.991700  0.503800  0.793500  1.0  -0.0279
  C  C70  1  0.051400  0.461000  0.857500  1.0  0.6832
  C  C71  1  0.499400  0.478300  0.793700  1.0  -0.0213
  C  C72  1  0.425300  0.479200  0.859300  1.0  0.6944
  C  C73  1  0.909500  0.775800  0.496100  1.0  0.3322
  C  C74  1  0.767500  0.816400  0.514800  1.0  0.0049
  C  C75  1  0.773600  0.730500  0.533800  1.0  0.004
  C  C76  1  0.687800  0.875600  0.515500  1.0  0.602
  C  C77  1  0.701300  0.668000  0.557500  1.0  0.6089
  C  C78  1  0.508300  0.003800  0.293500  1.0  -0.0282
  C  C79  1  0.448600  0.961000  0.357500  1.0  0.6842
  C  C80  1  0.000600  0.978300  0.293700  1.0  -0.0211
  C  C81  1  0.074700  0.979200  0.359300  1.0  0.6952
  C  C82  1  0.590500  0.275800  0.503900  1.0  0.3319
  C  C83  1  0.732500  0.316400  0.485200  1.0  0.005
  C  C84  1  0.726400  0.230500  0.466200  1.0  0.0043
  C  C85  1  0.812200  0.375600  0.484500  1.0  0.6024
  C  C86  1  0.798700  0.168000  0.442500  1.0  0.6097
  C  C87  1  0.991700  0.503800  0.706500  1.0  -0.0273
  C  C88  1  0.051400  0.461000  0.642500  1.0  0.6814
  C  C89  1  0.499400  0.478300  0.706300  1.0  -0.0212
  C  C90  1  0.425300  0.479200  0.640700  1.0  0.6944
  C  C91  1  0.090500  0.224200  0.996100  1.0  0.3317
  C  C92  1  0.232500  0.183600  0.014800  1.0  0.0057
  C  C93  1  0.226400  0.269500  0.033800  1.0  0.004
  C  C94  1  0.312200  0.124400  0.015500  1.0  0.6031
  C  C95  1  0.298700  0.332000  0.057500  1.0  0.6099
  C  C96  1  0.491700  0.996200  0.793500  1.0  -0.0281
  C  C97  1  0.551400  0.039000  0.857500  1.0  0.6823
  C  C98  1  0.999400  0.021700  0.793700  1.0  -0.0213
  C  C99  1  0.925300  0.020800  0.859300  1.0  0.6943
  C  C100  1  0.409500  0.724200  0.003900  1.0  0.3322
  C  C101  1  0.267500  0.683600  0.985200  1.0  0.0048
  C  C102  1  0.273600  0.769500  0.966200  1.0  0.0044
  C  C103  1  0.187800  0.624400  0.984500  1.0  0.6033
  C  C104  1  0.201300  0.832000  0.942500  1.0  0.6074
  C  C105  1  0.008300  0.496200  0.206500  1.0  -0.0281
  C  C106  1  0.948600  0.539000  0.142500  1.0  0.6827
  C  C107  1  0.500600  0.521700  0.206300  1.0  -0.0206
  C  C108  1  0.574700  0.520800  0.140700  1.0  0.695
  C  C109  1  0.376900  0.920600  0.750000  1.0  0.3158
  C  C110  1  0.140000  0.020500  0.750000  1.0  0.3222
  C  C111  1  0.123100  0.420600  0.250000  1.0  0.3153
  C  C112  1  0.360000  0.520500  0.250000  1.0  0.3221
  C  C113  1  0.623100  0.079400  0.250000  1.0  0.3169
  C  C114  1  0.860000  0.979500  0.250000  1.0  0.3218
  C  C115  1  0.876900  0.579400  0.750000  1.0  0.3159
  C  C116  1  0.640000  0.479500  0.750000  1.0  0.3219
  N  N117  1  0.136100  0.294900  0.479300  1.0  -0.4297
  N  N118  1  0.145700  0.155800  0.508500  1.0  -0.4331
  N  N119  1  0.090400  0.021800  0.680400  1.0  -0.4255
  N  N120  1  0.417600  0.947800  0.679800  1.0  -0.4215
  N  N121  1  0.363900  0.794900  0.520700  1.0  -0.4296
  N  N122  1  0.354300  0.655800  0.491500  1.0  -0.4335
  N  N123  1  0.409600  0.521800  0.319600  1.0  -0.4258
  N  N124  1  0.082400  0.447800  0.320200  1.0  -0.4217
  N  N125  1  0.863900  0.705100  0.979300  1.0  -0.4287
  N  N126  1  0.854300  0.844200  0.008500  1.0  -0.4327
  N  N127  1  0.909600  0.978200  0.180400  1.0  -0.4252
  N  N128  1  0.582400  0.052200  0.179800  1.0  -0.4217
  N  N129  1  0.636100  0.205100  0.020700  1.0  -0.4293
  N  N130  1  0.645700  0.344200  0.991500  1.0  -0.4328
  N  N131  1  0.590400  0.478200  0.819600  1.0  -0.4253
  N  N132  1  0.917600  0.552200  0.820200  1.0  -0.4213
  N  N133  1  0.863900  0.705100  0.520700  1.0  -0.4288
  N  N134  1  0.854300  0.844200  0.491500  1.0  -0.4328
  N  N135  1  0.909600  0.978200  0.319600  1.0  -0.4256
  N  N136  1  0.582400  0.052200  0.320200  1.0  -0.4215
  N  N137  1  0.636100  0.205100  0.479300  1.0  -0.4292
  N  N138  1  0.645700  0.344200  0.508500  1.0  -0.4327
  N  N139  1  0.590400  0.478200  0.680400  1.0  -0.4252
  N  N140  1  0.917600  0.552200  0.679800  1.0  -0.4214
  N  N141  1  0.136100  0.294900  0.020700  1.0  -0.4299
  N  N142  1  0.145700  0.155800  0.991500  1.0  -0.4334
  N  N143  1  0.090400  0.021800  0.819600  1.0  -0.4256
  N  N144  1  0.417600  0.947800  0.820200  1.0  -0.4215
  N  N145  1  0.363900  0.794900  0.979300  1.0  -0.4295
  N  N146  1  0.354300  0.655800  0.008500  1.0  -0.433
  N  N147  1  0.409600  0.521800  0.180400  1.0  -0.4255
  N  N148  1  0.082400  0.447800  0.179800  1.0  -0.4217
  O  O149  1  0.274500  0.407100  0.436800  1.0  -0.5589
  O  O150  1  0.381600  0.305700  0.430900  1.0  -0.3881
  O  O151  1  0.392100  0.150700  0.456400  1.0  -0.3669
  O  O152  1  0.298700  0.051900  0.511300  1.0  -0.5515
  O  O153  1  0.842000  0.008600  0.655600  1.0  -0.6539
  O  O154  1  0.955300  0.029200  0.567100  1.0  -0.6021
  O  O155  1  0.515600  0.040000  0.570900  1.0  -0.5838
  O  O156  1  0.628700  0.070000  0.657300  1.0  -0.6293
  O  O157  1  0.225500  0.907100  0.563200  1.0  -0.56
  O  O158  1  0.118400  0.805700  0.569100  1.0  -0.3861
  O  O159  1  0.107900  0.650700  0.543600  1.0  -0.3662
  O  O160  1  0.201300  0.551900  0.488700  1.0  -0.5452
  O  O161  1  0.658000  0.508600  0.344400  1.0  -0.6547
  O  O162  1  0.544700  0.529200  0.432900  1.0  -0.6012
  O  O163  1  0.984400  0.540000  0.429100  1.0  -0.5852
  O  O164  1  0.871300  0.570000  0.342700  1.0  -0.6289
  O  O165  1  0.725500  0.592900  0.936800  1.0  -0.5594
  O  O166  1  0.618400  0.694300  0.930900  1.0  -0.3881
  O  O167  1  0.607900  0.849300  0.956400  1.0  -0.366
  O  O168  1  0.701300  0.948100  0.011300  1.0  -0.5517
  O  O169  1  0.158000  0.991400  0.155600  1.0  -0.6548
  O  O170  1  0.044700  0.970800  0.067100  1.0  -0.6025
  O  O171  1  0.484400  0.960000  0.070900  1.0  -0.5835
  O  O172  1  0.371300  0.930000  0.157300  1.0  -0.6284
  O  O173  1  0.774500  0.092900  0.063200  1.0  -0.5595
  O  O174  1  0.881600  0.194300  0.069100  1.0  -0.3873
  O  O175  1  0.892100  0.349300  0.043600  1.0  -0.3668
  O  O176  1  0.798700  0.448100  0.988700  1.0  -0.5457
  O  O177  1  0.342000  0.491400  0.844400  1.0  -0.6541
  O  O178  1  0.455300  0.470800  0.932900  1.0  -0.601
  O  O179  1  0.015600  0.460000  0.929100  1.0  -0.5839
  O  O180  1  0.128700  0.430000  0.842700  1.0  -0.6286
  O  O181  1  0.725500  0.592900  0.563200  1.0  -0.5598
  O  O182  1  0.618400  0.694300  0.569100  1.0  -0.387
  O  O183  1  0.607900  0.849300  0.543600  1.0  -0.3658
  O  O184  1  0.701300  0.948100  0.488700  1.0  -0.5522
  O  O185  1  0.158000  0.991400  0.344400  1.0  -0.655
  O  O186  1  0.044700  0.970800  0.432900  1.0  -0.6009
  O  O187  1  0.484400  0.960000  0.429100  1.0  -0.584
  O  O188  1  0.371300  0.930000  0.342700  1.0  -0.6281
  O  O189  1  0.774500  0.092900  0.436800  1.0  -0.5591
  O  O190  1  0.881600  0.194300  0.430900  1.0  -0.3883
  O  O191  1  0.892100  0.349300  0.456400  1.0  -0.3668
  O  O192  1  0.798700  0.448100  0.511300  1.0  -0.5452
  O  O193  1  0.342000  0.491400  0.655600  1.0  -0.6538
  O  O194  1  0.455300  0.470800  0.567100  1.0  -0.6024
  O  O195  1  0.015600  0.460000  0.570900  1.0  -0.5833
  O  O196  1  0.128700  0.430000  0.657300  1.0  -0.6282
  O  O197  1  0.274500  0.407100  0.063200  1.0  -0.5594
  O  O198  1  0.381600  0.305700  0.069100  1.0  -0.3868
  O  O199  1  0.392100  0.150700  0.043600  1.0  -0.3672
  O  O200  1  0.298700  0.051900  0.988700  1.0  -0.5516
  O  O201  1  0.842000  0.008600  0.844400  1.0  -0.6543
  O  O202  1  0.955300  0.029200  0.932900  1.0  -0.6013
  O  O203  1  0.515600  0.040000  0.929100  1.0  -0.5847
  O  O204  1  0.628700  0.070000  0.842700  1.0  -0.6288
  O  O205  1  0.225500  0.907100  0.936800  1.0  -0.5595
  O  O206  1  0.118400  0.805700  0.930900  1.0  -0.3875
  O  O207  1  0.107900  0.650700  0.956400  1.0  -0.3661
  O  O208  1  0.201300  0.551900  0.011300  1.0  -0.5451
  O  O209  1  0.658000  0.508600  0.155600  1.0  -0.6546
  O  O210  1  0.544700  0.529200  0.067100  1.0  -0.6021
  O  O211  1  0.984400  0.540000  0.070900  1.0  -0.5843
  O  O212  1  0.871300  0.570000  0.157300  1.0  -0.6282
