# generated using pymatgen
data_Zn3P4H3O16
_symmetry_space_group_name_H-M   'P 1'
_cell_length_a   8.58320000
_cell_length_b   8.58320000
_cell_length_c   52.61000000
_cell_angle_alpha   90.00000000
_cell_angle_beta   90.00000000
_cell_angle_gamma   120.00000000
_symmetry_Int_Tables_number   1
_chemical_formula_structural   Zn3P4H3O16
_chemical_formula_sum   'Zn18 P24 H18 O96'
_cell_volume   3356.58305701
_cell_formula_units_Z   6
loop_
 _symmetry_equiv_pos_site_id
 _symmetry_equiv_pos_as_xyz
  1  'x, y, z'
loop_
 _atom_site_type_symbol
 _atom_site_label
 _atom_site_symmetry_multiplicity
 _atom_site_fract_x
 _atom_site_fract_y
 _atom_site_fract_z
 _atom_site_occupancy
 _atom_site_charge
  Zn  Zn1  1  0.969430  0.703580  0.009990  1.0  1.1192
  Zn  Zn2  1  0.296420  0.265850  0.676660  1.0  1.1157
  Zn  Zn3  1  0.734150  0.030570  0.343320  1.0  1.1161
  Zn  Zn4  1  0.030570  0.296420  0.509990  1.0  1.1183
  Zn  Zn5  1  0.703580  0.734150  0.176660  1.0  1.1163
  Zn  Zn6  1  0.265850  0.969430  0.843320  1.0  1.1164
  Zn  Zn7  1  0.703580  0.969430  0.656680  1.0  1.1153
  Zn  Zn8  1  0.265850  0.296420  0.990010  1.0  1.1173
  Zn  Zn9  1  0.030570  0.734150  0.323340  1.0  1.1151
  Zn  Zn10  1  0.296420  0.030570  0.156680  1.0  1.1151
  Zn  Zn11  1  0.734150  0.703580  0.490010  1.0  1.1176
  Zn  Zn12  1  0.969430  0.265850  0.823340  1.0  1.114
  Zn  Zn13  1  0.729690  0.000000  0.000000  1.0  1.14
  Zn  Zn14  1  0.000000  0.729690  0.666667  1.0  1.1404
  Zn  Zn15  1  0.270310  0.270310  0.333333  1.0  1.1407
  Zn  Zn16  1  0.270310  0.000000  0.500000  1.0  1.1396
  Zn  Zn17  1  0.000000  0.270310  0.166670  1.0  1.1402
  Zn  Zn18  1  0.729690  0.729690  0.833330  1.0  1.1403
  P  P19  1  0.985000  0.945600  0.961050  1.0  1.868
  P  P20  1  0.631800  0.304500  0.003630  1.0  1.7156
  P  P21  1  0.054400  0.039400  0.627720  1.0  1.8702
  P  P22  1  0.695500  0.327300  0.670300  1.0  1.7131
  P  P23  1  0.960600  0.015000  0.294380  1.0  1.8701
  P  P24  1  0.672700  0.368200  0.336960  1.0  1.716
  P  P25  1  0.015000  0.054400  0.461050  1.0  1.8693
  P  P26  1  0.368200  0.695500  0.503630  1.0  1.7147
  P  P27  1  0.945600  0.960600  0.127720  1.0  1.8691
  P  P28  1  0.304500  0.672700  0.170300  1.0  1.7149
  P  P29  1  0.039400  0.985000  0.794380  1.0  1.8703
  P  P30  1  0.327300  0.631800  0.836960  1.0  1.7173
  P  P31  1  0.945600  0.985000  0.705620  1.0  1.8711
  P  P32  1  0.304500  0.631800  0.663040  1.0  1.7154
  P  P33  1  0.039400  0.054400  0.038950  1.0  1.8689
  P  P34  1  0.327300  0.695500  0.996370  1.0  1.7149
  P  P35  1  0.015000  0.960600  0.372280  1.0  1.8707
  P  P36  1  0.368200  0.672700  0.329700  1.0  1.7122
  P  P37  1  0.054400  0.015000  0.205620  1.0  1.8708
  P  P38  1  0.695500  0.368200  0.163040  1.0  1.7164
  P  P39  1  0.960600  0.945600  0.538950  1.0  1.8705
  P  P40  1  0.672700  0.304500  0.496370  1.0  1.714
  P  P41  1  0.985000  0.039400  0.872280  1.0  1.8701
  P  P42  1  0.631800  0.327300  0.829700  1.0  1.7144
  H  H43  1  0.396000  0.155000  0.023700  1.0  0.374
  H  H44  1  0.845000  0.241000  0.690370  1.0  0.3771
  H  H45  1  0.759000  0.604000  0.357030  1.0  0.3751
  H  H46  1  0.604000  0.845000  0.523700  1.0  0.3763
  H  H47  1  0.155000  0.759000  0.190370  1.0  0.3755
  H  H48  1  0.241000  0.396000  0.857030  1.0  0.3753
  H  H49  1  0.155000  0.396000  0.642970  1.0  0.3768
  H  H50  1  0.241000  0.845000  0.976300  1.0  0.3751
  H  H51  1  0.604000  0.759000  0.309630  1.0  0.3781
  H  H52  1  0.845000  0.604000  0.142970  1.0  0.3762
  H  H53  1  0.759000  0.155000  0.476300  1.0  0.3766
  H  H54  1  0.396000  0.241000  0.809630  1.0  0.3759
  H  H55  1  0.969000  0.984500  0.916670  1.0  0.4471
  H  H56  1  0.015500  0.984500  0.583330  1.0  0.4464
  H  H57  1  0.015500  0.031000  0.250000  1.0  0.4474
  H  H58  1  0.031000  0.015500  0.416670  1.0  0.4462
  H  H59  1  0.984500  0.015500  0.083330  1.0  0.4467
  H  H60  1  0.984500  0.969000  0.750000  1.0  0.4478
  O  O61  1  0.964200  0.879800  0.933140  1.0  -0.537
  O  O62  1  0.816300  0.940400  0.969520  1.0  -0.7957
  O  O63  1  0.764600  0.474700  0.017190  1.0  -0.824
  O  O64  1  0.507500  0.167100  0.025310  1.0  -0.5646
  O  O65  1  0.510800  0.334700  0.985480  1.0  -0.763
  O  O66  1  0.723300  0.217300  0.989640  1.0  -0.7542
  O  O67  1  0.149000  0.136200  0.962130  1.0  -0.7912
  O  O68  1  0.018000  0.814000  0.976510  1.0  -0.8398
  O  O69  1  0.120200  0.084400  0.599810  1.0  -0.5377
  O  O70  1  0.059600  0.875900  0.636190  1.0  -0.7983
  O  O71  1  0.525300  0.289900  0.683860  1.0  -0.8199
  O  O72  1  0.832900  0.340400  0.691980  1.0  -0.5675
  O  O73  1  0.665300  0.176100  0.652150  1.0  -0.7626
  O  O74  1  0.782700  0.506000  0.656310  1.0  -0.7526
  O  O75  1  0.863800  0.012800  0.628800  1.0  -0.787
  O  O76  1  0.186000  0.204000  0.643180  1.0  -0.841
  O  O77  1  0.915600  0.035800  0.266470  1.0  -0.5394
  O  O78  1  0.124100  0.183700  0.302850  1.0  -0.7988
  O  O79  1  0.710100  0.235400  0.350520  1.0  -0.8237
  O  O80  1  0.659600  0.492500  0.358640  1.0  -0.5677
  O  O81  1  0.823900  0.489200  0.318810  1.0  -0.7619
  O  O82  1  0.494000  0.276700  0.322970  1.0  -0.7542
  O  O83  1  0.987200  0.851000  0.295460  1.0  -0.7899
  O  O84  1  0.796000  0.982000  0.309840  1.0  -0.8405
  O  O85  1  0.035800  0.120200  0.433140  1.0  -0.5379
  O  O86  1  0.183700  0.059600  0.469520  1.0  -0.7938
  O  O87  1  0.235400  0.525300  0.517190  1.0  -0.8249
  O  O88  1  0.492500  0.832900  0.525310  1.0  -0.568
  O  O89  1  0.489200  0.665300  0.485480  1.0  -0.7624
  O  O90  1  0.276700  0.782700  0.489640  1.0  -0.7526
  O  O91  1  0.851000  0.863800  0.462130  1.0  -0.791
  O  O92  1  0.982000  0.186000  0.476510  1.0  -0.8404
  O  O93  1  0.879800  0.915600  0.099810  1.0  -0.5385
  O  O94  1  0.940400  0.124100  0.136190  1.0  -0.7987
  O  O95  1  0.474700  0.710100  0.183860  1.0  -0.8228
  O  O96  1  0.167100  0.659600  0.191980  1.0  -0.5662
  O  O97  1  0.334700  0.823900  0.152150  1.0  -0.7618
  O  O98  1  0.217300  0.494000  0.156310  1.0  -0.7543
  O  O99  1  0.136200  0.987200  0.128800  1.0  -0.7875
  O  O100  1  0.814000  0.796000  0.143180  1.0  -0.8393
  O  O101  1  0.084400  0.964200  0.766470  1.0  -0.5392
  O  O102  1  0.875900  0.816300  0.802850  1.0  -0.7985
  O  O103  1  0.289900  0.764600  0.850520  1.0  -0.8235
  O  O104  1  0.340400  0.507500  0.858640  1.0  -0.5662
  O  O105  1  0.176100  0.510800  0.818810  1.0  -0.761
  O  O106  1  0.506000  0.723300  0.822970  1.0  -0.756
  O  O107  1  0.012800  0.149000  0.795460  1.0  -0.789
  O  O108  1  0.204000  0.018000  0.809840  1.0  -0.8406
  O  O109  1  0.879800  0.964200  0.733530  1.0  -0.5397
  O  O110  1  0.940400  0.816300  0.697150  1.0  -0.7958
  O  O111  1  0.474700  0.764600  0.649480  1.0  -0.824
  O  O112  1  0.167100  0.507500  0.641360  1.0  -0.5691
  O  O113  1  0.334700  0.510800  0.681190  1.0  -0.7619
  O  O114  1  0.217300  0.723300  0.677030  1.0  -0.755
  O  O115  1  0.136200  0.149000  0.704540  1.0  -0.7883
  O  O116  1  0.814000  0.018000  0.690160  1.0  -0.8397
  O  O117  1  0.084400  0.120200  0.066860  1.0  -0.5374
  O  O118  1  0.875900  0.059600  0.030480  1.0  -0.7937
  O  O119  1  0.289900  0.525300  0.982810  1.0  -0.8259
  O  O120  1  0.340400  0.832900  0.974690  1.0  -0.5668
  O  O121  1  0.176100  0.665300  0.014520  1.0  -0.7627
  O  O122  1  0.506000  0.782700  0.010360  1.0  -0.7543
  O  O123  1  0.012800  0.863800  0.037870  1.0  -0.7903
  O  O124  1  0.204000  0.186000  0.023490  1.0  -0.8392
  O  O125  1  0.035800  0.915600  0.400190  1.0  -0.5376
  O  O126  1  0.183700  0.124100  0.363810  1.0  -0.7992
  O  O127  1  0.235400  0.710100  0.316140  1.0  -0.8211
  O  O128  1  0.492500  0.659600  0.308020  1.0  -0.5689
  O  O129  1  0.489200  0.823900  0.347850  1.0  -0.7625
  O  O130  1  0.276700  0.494000  0.343690  1.0  -0.7541
  O  O131  1  0.851000  0.987200  0.371200  1.0  -0.7865
  O  O132  1  0.982000  0.796000  0.356820  1.0  -0.8393
  O  O133  1  0.120200  0.035800  0.233530  1.0  -0.5392
  O  O134  1  0.059600  0.183700  0.197150  1.0  -0.7979
  O  O135  1  0.525300  0.235400  0.149480  1.0  -0.8248
  O  O136  1  0.832900  0.492500  0.141360  1.0  -0.5676
  O  O137  1  0.665300  0.489200  0.181190  1.0  -0.7618
  O  O138  1  0.782700  0.276700  0.177030  1.0  -0.756
  O  O139  1  0.863800  0.851000  0.204540  1.0  -0.7883
  O  O140  1  0.186000  0.982000  0.190160  1.0  -0.8388
  O  O141  1  0.915600  0.879800  0.566860  1.0  -0.5376
  O  O142  1  0.124100  0.940400  0.530480  1.0  -0.7932
  O  O143  1  0.710100  0.474700  0.482810  1.0  -0.8256
  O  O144  1  0.659600  0.167100  0.474690  1.0  -0.5682
  O  O145  1  0.823900  0.334700  0.514520  1.0  -0.7635
  O  O146  1  0.494000  0.217300  0.510360  1.0  -0.7527
  O  O147  1  0.987200  0.136200  0.537870  1.0  -0.7901
  O  O148  1  0.796000  0.814000  0.523490  1.0  -0.8387
  O  O149  1  0.964200  0.084400  0.900190  1.0  -0.5379
  O  O150  1  0.816300  0.875900  0.863810  1.0  -0.7955
  O  O151  1  0.764600  0.289900  0.816140  1.0  -0.8241
  O  O152  1  0.507500  0.340400  0.808020  1.0  -0.5688
  O  O153  1  0.510800  0.176100  0.847850  1.0  -0.7617
  O  O154  1  0.723300  0.506000  0.843690  1.0  -0.7532
  O  O155  1  0.149000  0.012800  0.871200  1.0  -0.786
  O  O156  1  0.018000  0.204000  0.856820  1.0  -0.8388
