# generated using pymatgen
data_DyH3(C3O2)3
_symmetry_space_group_name_H-M   'P 1'
_cell_length_a   10.31310000
_cell_length_b   10.31310000
_cell_length_c   14.49500000
_cell_angle_alpha   90.00000000
_cell_angle_beta   90.00000000
_cell_angle_gamma   90.00000000
_symmetry_Int_Tables_number   1
_chemical_formula_structural   DyH3(C3O2)3
_chemical_formula_sum   'Dy4 H12 C36 O24'
_cell_volume   1541.68865819
_cell_formula_units_Z   4
loop_
 _symmetry_equiv_pos_site_id
 _symmetry_equiv_pos_as_xyz
  1  'x, y, z'
loop_
 _atom_site_type_symbol
 _atom_site_label
 _atom_site_symmetry_multiplicity
 _atom_site_fract_x
 _atom_site_fract_y
 _atom_site_fract_z
 _atom_site_occupancy
 _atom_site_charge
  Dy  Dy1  1  0.649110  0.649110  0.875000  1.0  2.3792
  Dy  Dy2  1  0.350890  0.350890  0.375000  1.0  2.3791
  Dy  Dy3  1  0.350890  0.649110  0.125000  1.0  2.3793
  Dy  Dy4  1  0.649110  0.350890  0.625000  1.0  2.3792
  H  H5  1  0.582700  0.060500  0.874700  1.0  0.1042
  H  H6  1  0.417300  0.939500  0.374700  1.0  0.1044
  H  H7  1  0.939500  0.582700  0.124700  1.0  0.1046
  H  H8  1  0.060500  0.417300  0.624700  1.0  0.1046
  H  H9  1  0.417300  0.060500  0.125300  1.0  0.1045
  H  H10  1  0.582700  0.939500  0.625300  1.0  0.1044
  H  H11  1  0.060500  0.582700  0.875300  1.0  0.1045
  H  H12  1  0.939500  0.417300  0.375300  1.0  0.1046
  H  H13  1  0.500000  0.398100  0.000000  1.0  0.0779
  H  H14  1  0.500000  0.601900  0.500000  1.0  0.0777
  H  H15  1  0.601900  0.500000  0.250000  1.0  0.0782
  H  H16  1  0.398100  0.500000  0.750000  1.0  0.0788
  C  C17  1  0.548000  0.105600  0.924400  1.0  0.0524
  C  C18  1  0.544500  0.239000  0.922700  1.0  -0.1995
  C  C19  1  0.589700  0.316200  0.840000  1.0  0.8317
  C  C20  1  0.452000  0.894400  0.424400  1.0  0.0524
  C  C21  1  0.455500  0.761000  0.422700  1.0  -0.1991
  C  C22  1  0.410300  0.683800  0.340000  1.0  0.8329
  C  C23  1  0.894400  0.548000  0.174400  1.0  0.0517
  C  C24  1  0.761000  0.544500  0.172700  1.0  -0.1982
  C  C25  1  0.683800  0.589700  0.090000  1.0  0.8314
  C  C26  1  0.105600  0.452000  0.674400  1.0  0.0519
  C  C27  1  0.239000  0.455500  0.672700  1.0  -0.199
  C  C28  1  0.316200  0.410300  0.590000  1.0  0.8305
  C  C29  1  0.452000  0.105600  0.075600  1.0  0.0517
  C  C30  1  0.455500  0.239000  0.077300  1.0  -0.1997
  C  C31  1  0.410300  0.316200  0.160000  1.0  0.8335
  C  C32  1  0.548000  0.894400  0.575600  1.0  0.0515
  C  C33  1  0.544500  0.761000  0.577300  1.0  -0.1997
  C  C34  1  0.589700  0.683800  0.660000  1.0  0.8327
  C  C35  1  0.105600  0.548000  0.825600  1.0  0.0508
  C  C36  1  0.239000  0.544500  0.827300  1.0  -0.1986
  C  C37  1  0.316200  0.589700  0.910000  1.0  0.831
  C  C38  1  0.894400  0.452000  0.325600  1.0  0.052
  C  C39  1  0.761000  0.455500  0.327300  1.0  -0.1997
  C  C40  1  0.683800  0.410300  0.410000  1.0  0.8331
  C  C41  1  0.500000  0.892500  0.000000  1.0  0.8429
  C  C42  1  0.500000  0.037700  0.000000  1.0  -0.1977
  C  C43  1  0.500000  0.307900  0.000000  1.0  0.0393
  C  C44  1  0.500000  0.107500  0.500000  1.0  0.8452
  C  C45  1  0.500000  0.962300  0.500000  1.0  -0.1967
  C  C46  1  0.500000  0.692100  0.500000  1.0  0.0404
  C  C47  1  0.107500  0.500000  0.250000  1.0  0.8501
  C  C48  1  0.962300  0.500000  0.250000  1.0  -0.1975
  C  C49  1  0.692100  0.500000  0.250000  1.0  0.0383
  C  C50  1  0.892500  0.500000  0.750000  1.0  0.8501
  C  C51  1  0.037700  0.500000  0.750000  1.0  -0.1975
  C  C52  1  0.307900  0.500000  0.750000  1.0  0.0401
  O  O53  1  0.571300  0.835300  0.941100  1.0  -0.8038
  O  O54  1  0.597200  0.257200  0.765200  1.0  -0.7679
  O  O55  1  0.612400  0.431000  0.850300  1.0  -0.7882
  O  O56  1  0.428700  0.164700  0.441100  1.0  -0.8026
  O  O57  1  0.402800  0.742800  0.265200  1.0  -0.7702
  O  O58  1  0.387600  0.569000  0.350300  1.0  -0.7867
  O  O59  1  0.164700  0.571300  0.191100  1.0  -0.8043
  O  O60  1  0.742800  0.597200  0.015200  1.0  -0.7714
  O  O61  1  0.569000  0.612400  0.100300  1.0  -0.7875
  O  O62  1  0.835300  0.428700  0.691100  1.0  -0.804
  O  O63  1  0.257200  0.402800  0.515200  1.0  -0.7722
  O  O64  1  0.431000  0.387600  0.600300  1.0  -0.7876
  O  O65  1  0.428700  0.835300  0.058900  1.0  -0.804
  O  O66  1  0.402800  0.257200  0.234800  1.0  -0.7716
  O  O67  1  0.387600  0.431000  0.149700  1.0  -0.7881
  O  O68  1  0.571300  0.164700  0.558900  1.0  -0.8033
  O  O69  1  0.597200  0.742800  0.734800  1.0  -0.7688
  O  O70  1  0.612400  0.569000  0.649700  1.0  -0.7865
  O  O71  1  0.835300  0.571300  0.808900  1.0  -0.8046
  O  O72  1  0.257200  0.597200  0.984800  1.0  -0.7731
  O  O73  1  0.431000  0.612400  0.899700  1.0  -0.787
  O  O74  1  0.164700  0.428700  0.308900  1.0  -0.8039
  O  O75  1  0.742800  0.402800  0.484800  1.0  -0.7738
  O  O76  1  0.569000  0.387600  0.399700  1.0  -0.7889
