# generated using pymatgen
data_FeP2H12C6(NO3)2
_symmetry_space_group_name_H-M   'P 1'
_cell_length_a   8.30810000
_cell_length_b   9.16470000
_cell_length_c   9.18390000
_cell_angle_alpha   62.78100000
_cell_angle_beta   79.02900000
_cell_angle_gamma   87.08800000
_symmetry_Int_Tables_number   1
_chemical_formula_structural   FeP2H12C6(NO3)2
_chemical_formula_sum   'Fe2 P4 H24 C12 N4 O12'
_cell_volume   609.94800602
_cell_formula_units_Z   2
loop_
 _symmetry_equiv_pos_site_id
 _symmetry_equiv_pos_as_xyz
  1  'x, y, z'
loop_
 _atom_site_type_symbol
 _atom_site_label
 _atom_site_symmetry_multiplicity
 _atom_site_fract_x
 _atom_site_fract_y
 _atom_site_fract_z
 _atom_site_occupancy
 _atom_site_charge
  Fe  Fe1  1  0.240560  0.576370  0.429620  1.0  0.9015
  Fe  Fe2  1  0.759440  0.423630  0.570380  1.0  0.9024
  P  P3  1  0.579260  0.533160  0.241940  1.0  1.5387
  P  P4  1  0.056940  0.251980  0.465400  1.0  1.5358
  P  P5  1  0.420740  0.466840  0.758060  1.0  1.5393
  P  P6  1  0.943060  0.748020  0.534600  1.0  1.5358
  H  H7  1  0.694800  0.759700  0.997800  1.0  0.201
  H  H8  1  0.613400  0.638200  0.954700  1.0  0.1894
  H  H9  1  0.143300  0.015200  0.671000  1.0  0.1923
  H  H10  1  0.210700  0.169500  0.674600  1.0  0.195
  H  H11  1  0.981300  0.746400  0.018000  1.0  0.1249
  H  H12  1  0.955100  0.568900  0.168300  1.0  0.1277
  H  H13  1  0.823600  0.347300  0.136300  1.0  0.1128
  H  H14  1  0.770200  0.389700  0.966700  1.0  0.1247
  H  H15  1  0.487200  0.113700  0.682900  1.0  0.1197
  H  H16  1  0.433000  0.933600  0.729900  1.0  0.1175
  H  H17  1  0.306400  0.881300  0.532800  1.0  0.1045
  H  H18  1  0.282000  0.028600  0.362900  1.0  0.1254
  H  H19  1  0.305200  0.240300  0.002200  1.0  0.1993
  H  H20  1  0.386600  0.361800  0.045300  1.0  0.1897
  H  H21  1  0.856700  0.984800  0.329000  1.0  0.1911
  H  H22  1  0.789300  0.830500  0.325400  1.0  0.1942
  H  H23  1  0.018700  0.253600  0.982000  1.0  0.1244
  H  H24  1  0.044900  0.431100  0.831700  1.0  0.1266
  H  H25  1  0.176400  0.652700  0.863700  1.0  0.1115
  H  H26  1  0.229800  0.610300  0.033300  1.0  0.1241
  H  H27  1  0.512800  0.886300  0.317100  1.0  0.1189
  H  H28  1  0.567000  0.066400  0.270100  1.0  0.1172
  H  H29  1  0.693600  0.118700  0.467200  1.0  0.1045
  H  H30  1  0.718000  0.971400  0.637100  1.0  0.1249
  C  C31  1  0.684200  0.644900  0.024300  1.0  -0.4824
  C  C32  1  0.195900  0.123400  0.601400  1.0  -0.455
  C  C33  1  0.980600  0.630400  0.047700  1.0  0.0274
  C  C34  1  0.851900  0.413400  0.016400  1.0  0.0126
  C  C35  1  0.477700  0.037700  0.638000  1.0  0.0391
  C  C36  1  0.353300  0.986300  0.444400  1.0  0.0235
  C  C37  1  0.315800  0.355100  0.975700  1.0  -0.4844
  C  C38  1  0.804100  0.876600  0.398600  1.0  -0.4557
  C  C39  1  0.019400  0.369600  0.952300  1.0  0.0269
  C  C40  1  0.148100  0.586600  0.983600  1.0  0.0106
  C  C41  1  0.522300  0.962300  0.362000  1.0  0.0403
  C  C42  1  0.646700  0.013700  0.555600  1.0  0.0219
  N  N43  1  0.851600  0.591400  0.974500  1.0  -0.1918
  N  N44  1  0.362700  0.103700  0.515500  1.0  -0.2193
  N  N45  1  0.148400  0.408600  0.025500  1.0  -0.1916
  N  N46  1  0.637300  0.896300  0.484500  1.0  -0.2212
  O  O47  1  0.442000  0.647700  0.251400  1.0  -0.7618
  O  O48  1  0.702700  0.523100  0.347900  1.0  -0.8056
  O  O49  1  0.127400  0.428300  0.378600  1.0  -0.8125
  O  O50  1  0.899100  0.232700  0.591500  1.0  -0.7864
  O  O51  1  0.518600  0.368000  0.270900  1.0  -0.6382
  O  O52  1  0.042000  0.194100  0.339000  1.0  -0.6526
  O  O53  1  0.558000  0.352300  0.748600  1.0  -0.7638
  O  O54  1  0.297300  0.476900  0.652100  1.0  -0.8068
  O  O55  1  0.872600  0.571700  0.621400  1.0  -0.813
  O  O56  1  0.100900  0.767300  0.408500  1.0  -0.7856
  O  O57  1  0.481400  0.632000  0.729100  1.0  -0.6374
  O  O58  1  0.958000  0.805900  0.661000  1.0  -0.6519
