# generated using pymatgen
data_Co4P3H33C18(NO5)3
_symmetry_space_group_name_H-M   'P 1'
_cell_length_a   9.27000000
_cell_length_b   19.14300000
_cell_length_c   19.14300000
_cell_angle_alpha   120.00000000
_cell_angle_beta   90.00000000
_cell_angle_gamma   90.00000000
_symmetry_Int_Tables_number   1
_chemical_formula_structural   Co4P3H33C18(NO5)3
_chemical_formula_sum   'Co16 P12 H132 C72 N12 O60'
_cell_volume   2941.91665226
_cell_formula_units_Z   4
loop_
 _symmetry_equiv_pos_site_id
 _symmetry_equiv_pos_as_xyz
  1  'x, y, z'
loop_
 _atom_site_type_symbol
 _atom_site_label
 _atom_site_symmetry_multiplicity
 _atom_site_fract_x
 _atom_site_fract_y
 _atom_site_fract_z
 _atom_site_occupancy
 _atom_site_charge
  Co  Co1  1  0.811620  0.507480  0.696630  1.0  0.9167
  Co  Co2  1  0.811620  0.189150  0.492520  1.0  0.9147
  Co  Co3  1  0.811620  0.303370  0.810850  1.0  0.9176
  Co  Co4  1  0.688380  0.810850  0.303370  1.0  0.9192
  Co  Co5  1  0.688380  0.696630  0.507480  1.0  0.9195
  Co  Co6  1  0.688380  0.492520  0.189150  1.0  0.9167
  Co  Co7  1  0.188380  0.492520  0.303370  1.0  0.9141
  Co  Co8  1  0.188380  0.810850  0.507480  1.0  0.9133
  Co  Co9  1  0.188380  0.696630  0.189150  1.0  0.9149
  Co  Co10  1  0.311620  0.189150  0.696630  1.0  0.9113
  Co  Co11  1  0.311620  0.303370  0.492520  1.0  0.9129
  Co  Co12  1  0.311620  0.507480  0.810850  1.0  0.9117
  Co  Co13  1  0.765920  0.333333  0.666667  1.0  1.0184
  Co  Co14  1  0.734080  0.666667  0.333333  1.0  1.0181
  Co  Co15  1  0.234080  0.666667  0.333333  1.0  1.0181
  Co  Co16  1  0.265920  0.333333  0.666667  1.0  1.0184
  P  P17  1  0.005240  0.367160  0.562030  1.0  1.5309
  P  P18  1  0.005240  0.194870  0.632840  1.0  1.5305
  P  P19  1  0.005240  0.437970  0.805130  1.0  1.5297
  P  P20  1  0.494760  0.805130  0.437970  1.0  1.5292
  P  P21  1  0.494760  0.562030  0.367160  1.0  1.5299
  P  P22  1  0.494760  0.632840  0.194870  1.0  1.5306
  P  P23  1  0.994760  0.632840  0.437970  1.0  1.5318
  P  P24  1  0.994760  0.805130  0.367160  1.0  1.5298
  P  P25  1  0.994760  0.562030  0.194870  1.0  1.5297
  P  P26  1  0.505240  0.194870  0.562030  1.0  1.5306
  P  P27  1  0.505240  0.437970  0.632840  1.0  1.5308
  P  P28  1  0.505240  0.367160  0.805130  1.0  1.5327
  H  H29  1  0.001200  0.284500  0.421600  1.0  0.1297
  H  H30  1  0.949900  0.373700  0.446200  1.0  0.1516
  H  H31  1  0.101000  0.353100  0.334500  1.0  0.1147
  H  H32  1  0.179300  0.474400  0.533500  1.0  0.1148
  H  H33  1  0.096900  0.469100  0.457600  1.0  0.1162
  H  H34  1  0.064000  0.220200  0.308900  1.0  0.1202
  H  H35  1  0.235000  0.206800  0.303300  1.0  0.2144
  H  H36  1  0.153600  0.222500  0.238700  1.0  0.1394
  H  H37  1  0.888500  0.758300  0.898400  1.0  0.1283
  H  H38  1  0.716400  0.752700  0.899900  1.0  0.1309
  H  H39  1  0.813100  0.720700  0.947400  1.0  0.1252
  H  H40  1  0.001200  0.137100  0.715500  1.0  0.1278
  H  H41  1  0.949900  0.072500  0.626300  1.0  0.1528
  H  H42  1  0.101000  0.981400  0.646900  1.0  0.1134
  H  H43  1  0.179300  0.059100  0.525600  1.0  0.117
  H  H44  1  0.096900  0.988500  0.530900  1.0  0.116
  H  H45  1  0.064000  0.088700  0.779800  1.0  0.1211
  H  H46  1  0.235000  0.096500  0.793200  1.0  0.2137
  H  H47  1  0.153600  0.016200  0.777500  1.0  0.1352
  H  H48  1  0.888500  0.140100  0.241700  1.0  0.1279
  H  H49  1  0.716400  0.147200  0.247300  1.0  0.1281
  H  H50  1  0.813100  0.226700  0.279300  1.0  0.1285
  H  H51  1  0.001200  0.578400  0.862900  1.0  0.1294
  H  H52  1  0.949900  0.553800  0.927500  1.0  0.1509
  H  H53  1  0.101000  0.665500  0.018600  1.0  0.1147
  H  H54  1  0.179300  0.466500  0.940900  1.0  0.1154
  H  H55  1  0.096900  0.542400  0.011500  1.0  0.1162
  H  H56  1  0.064000  0.691100  0.911300  1.0  0.1201
  H  H57  1  0.235000  0.696700  0.903500  1.0  0.2153
  H  H58  1  0.153600  0.761300  0.983800  1.0  0.1357
  H  H59  1  0.888500  0.101600  0.859900  1.0  0.1293
  H  H60  1  0.716400  0.100100  0.852800  1.0  0.1281
  H  H61  1  0.813100  0.052600  0.773300  1.0  0.1262
  H  H62  1  0.498800  0.862900  0.578400  1.0  0.1266
  H  H63  1  0.550100  0.927500  0.553800  1.0  0.1518
  H  H64  1  0.399000  0.018600  0.665500  1.0  0.1165
  H  H65  1  0.320700  0.940900  0.466500  1.0  0.1149
  H  H66  1  0.403100  0.011500  0.542400  1.0  0.1168
  H  H67  1  0.436000  0.911300  0.691100  1.0  0.1209
  H  H68  1  0.265000  0.903500  0.696700  1.0  0.2138
  H  H69  1  0.346400  0.983800  0.761300  1.0  0.1353
  H  H70  1  0.611500  0.859900  0.101600  1.0  0.1288
  H  H71  1  0.783600  0.852800  0.100100  1.0  0.1283
  H  H72  1  0.686900  0.773300  0.052600  1.0  0.1279
  H  H73  1  0.498800  0.421600  0.284500  1.0  0.1296
  H  H74  1  0.550100  0.446200  0.373700  1.0  0.1514
  H  H75  1  0.399000  0.334500  0.353100  1.0  0.1178
  H  H76  1  0.320700  0.533500  0.474400  1.0  0.1142
  H  H77  1  0.403100  0.457600  0.469100  1.0  0.116
  H  H78  1  0.436000  0.308900  0.220200  1.0  0.1192
  H  H79  1  0.265000  0.303300  0.206800  1.0  0.2172
  H  H80  1  0.346400  0.238700  0.222500  1.0  0.1351
  H  H81  1  0.611500  0.898400  0.758300  1.0  0.1286
  H  H82  1  0.783600  0.899900  0.752700  1.0  0.1291
  H  H83  1  0.686900  0.947400  0.720700  1.0  0.1275
  H  H84  1  0.498800  0.715500  0.137100  1.0  0.1293
  H  H85  1  0.550100  0.626300  0.072500  1.0  0.1516
  H  H86  1  0.399000  0.646900  0.981400  1.0  0.1179
  H  H87  1  0.320700  0.525600  0.059100  1.0  0.1138
  H  H88  1  0.403100  0.530900  0.988500  1.0  0.1149
  H  H89  1  0.436000  0.779800  0.088700  1.0  0.1196
  H  H90  1  0.265000  0.793200  0.096500  1.0  0.2161
  H  H91  1  0.346400  0.777500  0.016200  1.0  0.1379
  H  H92  1  0.611500  0.241700  0.140100  1.0  0.1306
  H  H93  1  0.783600  0.247300  0.147200  1.0  0.1292
  H  H94  1  0.686900  0.279300  0.226700  1.0  0.1266
  H  H95  1  0.998800  0.715500  0.578400  1.0  0.1292
  H  H96  1  0.050100  0.626300  0.553800  1.0  0.1519
  H  H97  1  0.899000  0.646900  0.665500  1.0  0.1166
  H  H98  1  0.820700  0.525600  0.466500  1.0  0.1153
  H  H99  1  0.903100  0.530900  0.542400  1.0  0.1148
  H  H100  1  0.936000  0.779800  0.691100  1.0  0.1185
  H  H101  1  0.765000  0.793200  0.696700  1.0  0.2158
  H  H102  1  0.846400  0.777500  0.761300  1.0  0.1351
  H  H103  1  0.111500  0.241700  0.101600  1.0  0.1309
  H  H104  1  0.283600  0.247300  0.100100  1.0  0.1285
  H  H105  1  0.186900  0.279300  0.052600  1.0  0.1282
  H  H106  1  0.998800  0.862900  0.284500  1.0  0.1276
  H  H107  1  0.050100  0.927500  0.373700  1.0  0.1518
  H  H108  1  0.899000  0.018600  0.353100  1.0  0.1157
  H  H109  1  0.820700  0.940900  0.474400  1.0  0.1166
  H  H110  1  0.903100  0.011500  0.469100  1.0  0.1162
  H  H111  1  0.936000  0.911300  0.220200  1.0  0.1202
  H  H112  1  0.765000  0.903500  0.206800  1.0  0.2133
  H  H113  1  0.846400  0.983800  0.222500  1.0  0.1367
  H  H114  1  0.111500  0.859900  0.758300  1.0  0.1291
  H  H115  1  0.283600  0.852800  0.752700  1.0  0.1285
  H  H116  1  0.186900  0.773300  0.720700  1.0  0.1278
  H  H117  1  0.998800  0.421600  0.137100  1.0  0.1298
  H  H118  1  0.050100  0.446200  0.072500  1.0  0.1518
  H  H119  1  0.899000  0.334500  0.981400  1.0  0.1172
  H  H120  1  0.820700  0.533500  0.059100  1.0  0.1156
  H  H121  1  0.903100  0.457600  0.988500  1.0  0.1171
  H  H122  1  0.936000  0.308900  0.088700  1.0  0.1202
  H  H123  1  0.765000  0.303300  0.096500  1.0  0.2158
  H  H124  1  0.846400  0.238700  0.016200  1.0  0.1361
  H  H125  1  0.111500  0.898400  0.140100  1.0  0.1312
  H  H126  1  0.283600  0.899900  0.147200  1.0  0.1301
  H  H127  1  0.186900  0.947400  0.226700  1.0  0.1265
  H  H128  1  0.501200  0.137100  0.421600  1.0  0.1292
  H  H129  1  0.449900  0.072500  0.446200  1.0  0.1529
  H  H130  1  0.601000  0.981400  0.334500  1.0  0.1147
  H  H131  1  0.679300  0.059100  0.533500  1.0  0.1145
  H  H132  1  0.596900  0.988500  0.457600  1.0  0.1157
  H  H133  1  0.564000  0.088700  0.308900  1.0  0.1212
  H  H134  1  0.735000  0.096500  0.303300  1.0  0.2155
  H  H135  1  0.653600  0.016200  0.238700  1.0  0.1368
  H  H136  1  0.388500  0.140100  0.898400  1.0  0.1305
  H  H137  1  0.216400  0.147200  0.899900  1.0  0.1291
  H  H138  1  0.313100  0.226700  0.947400  1.0  0.1279
  H  H139  1  0.501200  0.578400  0.715500  1.0  0.1297
  H  H140  1  0.449900  0.553800  0.626300  1.0  0.1512
  H  H141  1  0.601000  0.665500  0.646900  1.0  0.1159
  H  H142  1  0.679300  0.466500  0.525600  1.0  0.1143
  H  H143  1  0.596900  0.542400  0.530900  1.0  0.1175
  H  H144  1  0.564000  0.691100  0.779800  1.0  0.1207
  H  H145  1  0.735000  0.696700  0.793200  1.0  0.214
  H  H146  1  0.653600  0.761300  0.777500  1.0  0.137
  H  H147  1  0.388500  0.101600  0.241700  1.0  0.13
  H  H148  1  0.216400  0.100100  0.247300  1.0  0.128
  H  H149  1  0.313100  0.052600  0.279300  1.0  0.1269
  H  H150  1  0.501200  0.284500  0.862900  1.0  0.1298
  H  H151  1  0.449900  0.373700  0.927500  1.0  0.1516
  H  H152  1  0.601000  0.353100  0.018600  1.0  0.1152
  H  H153  1  0.679300  0.474400  0.940900  1.0  0.1141
  H  H154  1  0.596900  0.469100  0.011500  1.0  0.1157
  H  H155  1  0.564000  0.220200  0.911300  1.0  0.1196
  H  H156  1  0.735000  0.206800  0.903500  1.0  0.2135
  H  H157  1  0.653600  0.222500  0.983800  1.0  0.1363
  H  H158  1  0.388500  0.758300  0.859900  1.0  0.1292
  H  H159  1  0.216400  0.752700  0.852800  1.0  0.1304
  H  H160  1  0.313100  0.720700  0.773300  1.0  0.128
  C  C161  1  0.022400  0.342500  0.457300  1.0  -0.3515
  C  C162  1  0.178200  0.326200  0.349100  1.0  0.1129
  C  C163  1  0.181200  0.448900  0.474000  1.0  0.0282
  C  C164  1  0.156000  0.235900  0.295200  1.0  -0.3391
  C  C165  1  0.812400  0.643000  0.824500  1.0  0.3994
  C  C166  1  0.807000  0.726100  0.899200  1.0  -0.3186
  C  C167  1  0.022400  0.114800  0.657500  1.0  -0.3462
  C  C168  1  0.178200  0.022900  0.673800  1.0  0.113
  C  C169  1  0.181200  0.025100  0.551100  1.0  0.0317
  C  C170  1  0.156000  0.059300  0.764100  1.0  -0.3379
  C  C171  1  0.812400  0.181500  0.357000  1.0  0.4003
  C  C172  1  0.807000  0.173100  0.273900  1.0  -0.3166
  C  C173  1  0.022400  0.542700  0.885200  1.0  -0.3402
  C  C174  1  0.178200  0.650900  0.977100  1.0  0.1126
  C  C175  1  0.181200  0.526000  0.974900  1.0  0.0317
  C  C176  1  0.156000  0.704800  0.940700  1.0  -0.3362
  C  C177  1  0.812400  0.175500  0.818500  1.0  0.4008
  C  C178  1  0.807000  0.100800  0.826900  1.0  -0.3159
  C  C179  1  0.477600  0.885200  0.542700  1.0  -0.3484
  C  C180  1  0.321800  0.977100  0.650900  1.0  0.1149
  C  C181  1  0.318800  0.974900  0.526000  1.0  0.0309
  C  C182  1  0.344000  0.940700  0.704800  1.0  -0.3374
  C  C183  1  0.687600  0.818500  0.175500  1.0  0.3992
  C  C184  1  0.693000  0.826900  0.100800  1.0  -0.3172
  C  C185  1  0.477600  0.457300  0.342500  1.0  -0.3372
  C  C186  1  0.321800  0.349100  0.326200  1.0  0.1146
  C  C187  1  0.318800  0.474000  0.448900  1.0  0.0312
  C  C188  1  0.344000  0.295200  0.235900  1.0  -0.337
  C  C189  1  0.687600  0.824500  0.643000  1.0  0.3994
  C  C190  1  0.693000  0.899200  0.726100  1.0  -0.3165
  C  C191  1  0.477600  0.657500  0.114800  1.0  -0.3502
  C  C192  1  0.321800  0.673800  0.022900  1.0  0.1141
  C  C193  1  0.318800  0.551100  0.025100  1.0  0.0283
  C  C194  1  0.344000  0.764100  0.059300  1.0  -0.3375
  C  C195  1  0.687600  0.357000  0.181500  1.0  0.4
  C  C196  1  0.693000  0.273900  0.173100  1.0  -0.3191
  C  C197  1  0.977600  0.657500  0.542700  1.0  -0.3518
  C  C198  1  0.821800  0.673800  0.650900  1.0  0.114
  C  C199  1  0.818800  0.551100  0.526000  1.0  0.0287
  C  C200  1  0.844000  0.764100  0.704800  1.0  -0.3368
  C  C201  1  0.187600  0.357000  0.175500  1.0  0.4002
  C  C202  1  0.193000  0.273900  0.100800  1.0  -0.3179
  C  C203  1  0.977600  0.885200  0.342500  1.0  -0.3471
  C  C204  1  0.821800  0.977100  0.326200  1.0  0.1138
  C  C205  1  0.818800  0.974900  0.448900  1.0  0.0317
  C  C206  1  0.844000  0.940700  0.235900  1.0  -0.3384
  C  C207  1  0.187600  0.818500  0.643000  1.0  0.399
  C  C208  1  0.193000  0.826900  0.726100  1.0  -0.3175
  C  C209  1  0.977600  0.457300  0.114800  1.0  -0.338
  C  C210  1  0.821800  0.349100  0.022900  1.0  0.1142
  C  C211  1  0.818800  0.474000  0.025100  1.0  0.0315
  C  C212  1  0.844000  0.295200  0.059300  1.0  -0.3361
  C  C213  1  0.187600  0.824500  0.181500  1.0  0.3977
  C  C214  1  0.193000  0.899200  0.173100  1.0  -0.3148
  C  C215  1  0.522400  0.114800  0.457300  1.0  -0.3463
  C  C216  1  0.678200  0.022900  0.349100  1.0  0.113
  C  C217  1  0.681200  0.025100  0.474000  1.0  0.0302
  C  C218  1  0.656000  0.059300  0.295200  1.0  -0.3383
  C  C219  1  0.312400  0.181500  0.824500  1.0  0.4006
  C  C220  1  0.307000  0.173100  0.899200  1.0  -0.318
  C  C221  1  0.522400  0.542700  0.657500  1.0  -0.3388
  C  C222  1  0.678200  0.650900  0.673800  1.0  0.1133
  C  C223  1  0.681200  0.526000  0.551100  1.0  0.031
  C  C224  1  0.656000  0.704800  0.764100  1.0  -0.3365
  C  C225  1  0.312400  0.175500  0.357000  1.0  0.398
  C  C226  1  0.307000  0.100800  0.273900  1.0  -0.3157
  C  C227  1  0.522400  0.342500  0.885200  1.0  -0.3509
  C  C228  1  0.678200  0.326200  0.977100  1.0  0.1138
  C  C229  1  0.681200  0.448900  0.974900  1.0  0.0282
  C  C230  1  0.656000  0.235900  0.940700  1.0  -0.3375
  C  C231  1  0.312400  0.643000  0.818500  1.0  0.4019
  C  C232  1  0.307000  0.726100  0.826900  1.0  -0.3181
  N  N233  1  0.168400  0.360300  0.437900  1.0  -0.2421
  N  N234  1  0.168400  0.077600  0.639700  1.0  -0.2434
  N  N235  1  0.168400  0.562100  0.922400  1.0  -0.2453
  N  N236  1  0.331600  0.922400  0.562100  1.0  -0.2433
  N  N237  1  0.331600  0.437900  0.360300  1.0  -0.2442
  N  N238  1  0.331600  0.639700  0.077600  1.0  -0.2425
  N  N239  1  0.831600  0.639700  0.562100  1.0  -0.2428
  N  N240  1  0.831600  0.922400  0.360300  1.0  -0.243
  N  N241  1  0.831600  0.437900  0.077600  1.0  -0.2448
  N  N242  1  0.668400  0.077600  0.437900  1.0  -0.2438
  N  N243  1  0.668400  0.562100  0.639700  1.0  -0.2444
  N  N244  1  0.668400  0.360300  0.922400  1.0  -0.2428
  O  O245  1  0.965900  0.455940  0.612670  1.0  -0.7912
  O  O246  1  0.891100  0.311680  0.565520  1.0  -0.8073
  O  O247  1  0.157000  0.348590  0.580860  1.0  -0.8119
  O  O248  1  0.728200  0.586800  0.806300  1.0  -0.5454
  O  O249  1  0.922700  0.625400  0.775200  1.0  -0.6125
  O  O250  1  0.965900  0.156730  0.544060  1.0  -0.791
  O  O251  1  0.891100  0.253840  0.688320  1.0  -0.808
  O  O252  1  0.157000  0.232270  0.651410  1.0  -0.8139
  O  O253  1  0.728200  0.219500  0.413200  1.0  -0.5456
  O  O254  1  0.922700  0.149800  0.374600  1.0  -0.6107
  O  O255  1  0.965900  0.387330  0.843270  1.0  -0.79
  O  O256  1  0.891100  0.434480  0.746160  1.0  -0.8079
  O  O257  1  0.157000  0.419140  0.767730  1.0  -0.8147
  O  O258  1  0.728200  0.193700  0.780500  1.0  -0.5459
  O  O259  1  0.922700  0.224800  0.850200  1.0  -0.6117
  O  O260  1  0.534100  0.843270  0.387330  1.0  -0.7918
  O  O261  1  0.608900  0.746160  0.434480  1.0  -0.8076
  O  O262  1  0.343000  0.767730  0.419140  1.0  -0.8141
  O  O263  1  0.771800  0.780500  0.193700  1.0  -0.5444
  O  O264  1  0.577300  0.850200  0.224800  1.0  -0.6127
  O  O265  1  0.534100  0.612670  0.455940  1.0  -0.7918
  O  O266  1  0.608900  0.565520  0.311680  1.0  -0.807
  O  O267  1  0.343000  0.580860  0.348590  1.0  -0.8143
  O  O268  1  0.771800  0.806300  0.586800  1.0  -0.5452
  O  O269  1  0.577300  0.775200  0.625400  1.0  -0.6135
  O  O270  1  0.534100  0.544060  0.156730  1.0  -0.7916
  O  O271  1  0.608900  0.688320  0.253840  1.0  -0.8066
  O  O272  1  0.343000  0.651410  0.232270  1.0  -0.8127
  O  O273  1  0.771800  0.413200  0.219500  1.0  -0.5461
  O  O274  1  0.577300  0.374600  0.149800  1.0  -0.6127
  O  O275  1  0.034100  0.544060  0.387330  1.0  -0.7901
  O  O276  1  0.108900  0.688320  0.434480  1.0  -0.8075
  O  O277  1  0.843000  0.651410  0.419140  1.0  -0.812
  O  O278  1  0.271800  0.413200  0.193700  1.0  -0.5452
  O  O279  1  0.077300  0.374600  0.224800  1.0  -0.6133
  O  O280  1  0.034100  0.843270  0.455940  1.0  -0.7918
  O  O281  1  0.108900  0.746160  0.311680  1.0  -0.8084
  O  O282  1  0.843000  0.767730  0.348590  1.0  -0.8137
  O  O283  1  0.271800  0.780500  0.586800  1.0  -0.5445
  O  O284  1  0.077300  0.850200  0.625400  1.0  -0.6125
  O  O285  1  0.034100  0.612670  0.156730  1.0  -0.7919
  O  O286  1  0.108900  0.565520  0.253840  1.0  -0.8078
  O  O287  1  0.843000  0.580860  0.232270  1.0  -0.8144
  O  O288  1  0.271800  0.806300  0.219500  1.0  -0.546
  O  O289  1  0.077300  0.775200  0.149800  1.0  -0.6136
  O  O290  1  0.465900  0.156730  0.612670  1.0  -0.7916
  O  O291  1  0.391100  0.253840  0.565520  1.0  -0.8087
  O  O292  1  0.657000  0.232270  0.580860  1.0  -0.8142
  O  O293  1  0.228200  0.219500  0.806300  1.0  -0.5447
  O  O294  1  0.422700  0.149800  0.775200  1.0  -0.6106
  O  O295  1  0.465900  0.387330  0.544060  1.0  -0.7905
  O  O296  1  0.391100  0.434480  0.688320  1.0  -0.8089
  O  O297  1  0.657000  0.419140  0.651410  1.0  -0.8139
  O  O298  1  0.228200  0.193700  0.413200  1.0  -0.546
  O  O299  1  0.422700  0.224800  0.374600  1.0  -0.612
  O  O300  1  0.465900  0.455940  0.843270  1.0  -0.7907
  O  O301  1  0.391100  0.311680  0.746160  1.0  -0.8079
  O  O302  1  0.657000  0.348590  0.767730  1.0  -0.8118
  O  O303  1  0.228200  0.586800  0.780500  1.0  -0.545
  O  O304  1  0.422700  0.625400  0.850200  1.0  -0.6124
