# generated using pymatgen
data_NiPC3NO3
_symmetry_space_group_name_H-M   'P 1'
_cell_length_a   27.94860000
_cell_length_b   27.94860000
_cell_length_c   6.23020000
_cell_angle_alpha   90.00000000
_cell_angle_beta   90.00000000
_cell_angle_gamma   120.00000000
_symmetry_Int_Tables_number   1
_chemical_formula_structural   NiPC3NO3
_chemical_formula_sum   'Ni18 P18 C54 N18 O54'
_cell_volume   4214.56480750
_cell_formula_units_Z   18
loop_
 _symmetry_equiv_pos_site_id
 _symmetry_equiv_pos_as_xyz
  1  'x, y, z'
loop_
 _atom_site_type_symbol
 _atom_site_label
 _atom_site_symmetry_multiplicity
 _atom_site_fract_x
 _atom_site_fract_y
 _atom_site_fract_z
 _atom_site_occupancy
 _atom_site_charge
  Ni  Ni1  1  0.637860  0.028400  0.051700  1.0  0.8877
  Ni  Ni2  1  0.304530  0.361730  0.385030  1.0  0.8874
  Ni  Ni3  1  0.971190  0.695070  0.718370  1.0  0.8874
  Ni  Ni4  1  0.971600  0.609460  0.051700  1.0  0.8835
  Ni  Ni5  1  0.638270  0.942790  0.385030  1.0  0.8835
  Ni  Ni6  1  0.304930  0.276130  0.718370  1.0  0.8844
  Ni  Ni7  1  0.390540  0.362140  0.051700  1.0  0.8884
  Ni  Ni8  1  0.057210  0.695470  0.385030  1.0  0.8886
  Ni  Ni9  1  0.723870  0.028810  0.718370  1.0  0.8884
  Ni  Ni10  1  0.362140  0.971600  0.948300  1.0  0.8823
  Ni  Ni11  1  0.028810  0.304930  0.281630  1.0  0.882
  Ni  Ni12  1  0.695470  0.638270  0.614970  1.0  0.882
  Ni  Ni13  1  0.028400  0.390540  0.948300  1.0  0.8883
  Ni  Ni14  1  0.695070  0.723870  0.281630  1.0  0.8892
  Ni  Ni15  1  0.361730  0.057210  0.614970  1.0  0.8883
  Ni  Ni16  1  0.609460  0.637860  0.948300  1.0  0.8904
  Ni  Ni17  1  0.276130  0.971190  0.281630  1.0  0.8904
  Ni  Ni18  1  0.942790  0.304530  0.614970  1.0  0.8907
  P  P19  1  0.613550  0.039590  0.572900  1.0  1.4036
  P  P20  1  0.280220  0.372920  0.906230  1.0  1.4036
  P  P21  1  0.946880  0.706260  0.239570  1.0  1.4029
  P  P22  1  0.960410  0.573960  0.572900  1.0  1.385
  P  P23  1  0.627080  0.907290  0.906230  1.0  1.385
  P  P24  1  0.293740  0.240630  0.239570  1.0  1.3857
  P  P25  1  0.426040  0.386450  0.572900  1.0  1.4012
  P  P26  1  0.092710  0.719780  0.906230  1.0  1.4004
  P  P27  1  0.759370  0.053120  0.239570  1.0  1.4012
  P  P28  1  0.386450  0.960410  0.427100  1.0  1.4017
  P  P29  1  0.053120  0.293740  0.760430  1.0  1.4011
  P  P30  1  0.719780  0.627080  0.093770  1.0  1.4017
  P  P31  1  0.039590  0.426040  0.427100  1.0  1.4013
  P  P32  1  0.706260  0.759370  0.760430  1.0  1.402
  P  P33  1  0.372920  0.092710  0.093770  1.0  1.4013
  P  P34  1  0.573960  0.613550  0.427100  1.0  1.3906
  P  P35  1  0.240630  0.946880  0.760430  1.0  1.3906
  P  P36  1  0.907290  0.280220  0.093770  1.0  1.3899
  C  C37  1  0.543700  0.056800  0.986000  1.0  0.0072
  C  C38  1  0.518000  0.961300  0.084000  1.0  0.0877
  C  C39  1  0.546800  0.988500  0.730000  1.0  -0.056
  C  C40  1  0.210370  0.390130  0.319330  1.0  0.0073
  C  C41  1  0.184670  0.294630  0.417330  1.0  0.0878
  C  C42  1  0.213470  0.321830  0.063330  1.0  -0.056
  C  C43  1  0.877030  0.723470  0.652670  1.0  0.0071
  C  C44  1  0.851330  0.627970  0.750670  1.0  0.0877
  C  C45  1  0.880130  0.655170  0.396670  1.0  -0.056
  C  C46  1  0.943200  0.486900  0.986000  1.0  0.0058
  C  C47  1  0.038700  0.556700  0.084000  1.0  0.0886
  C  C48  1  0.011500  0.558300  0.730000  1.0  -0.0566
  C  C49  1  0.609870  0.820230  0.319330  1.0  0.0058
  C  C50  1  0.705370  0.890030  0.417330  1.0  0.0884
  C  C51  1  0.678170  0.891630  0.063330  1.0  -0.0565
  C  C52  1  0.276530  0.153570  0.652670  1.0  0.0058
  C  C53  1  0.372030  0.223370  0.750670  1.0  0.0887
  C  C54  1  0.344830  0.224970  0.396670  1.0  -0.0566
  C  C55  1  0.513100  0.456300  0.986000  1.0  0.0062
  C  C56  1  0.443300  0.482000  0.084000  1.0  0.0862
  C  C57  1  0.441700  0.453200  0.730000  1.0  -0.0563
  C  C58  1  0.179770  0.789630  0.319330  1.0  0.0062
  C  C59  1  0.109970  0.815330  0.417330  1.0  0.0862
  C  C60  1  0.108370  0.786530  0.063330  1.0  -0.0563
  C  C61  1  0.846430  0.122970  0.652670  1.0  0.0062
  C  C62  1  0.776630  0.148670  0.750670  1.0  0.0862
  C  C63  1  0.775030  0.119870  0.396670  1.0  -0.0563
  C  C64  1  0.456300  0.943200  0.014000  1.0  0.0078
  C  C65  1  0.482000  0.038700  0.916000  1.0  0.0888
  C  C66  1  0.453200  0.011500  0.270000  1.0  -0.0653
  C  C67  1  0.122970  0.276530  0.347330  1.0  0.0078
  C  C68  1  0.148670  0.372030  0.249330  1.0  0.0888
  C  C69  1  0.119870  0.344830  0.603330  1.0  -0.0653
  C  C70  1  0.789630  0.609870  0.680670  1.0  0.0078
  C  C71  1  0.815330  0.705370  0.582670  1.0  0.0889
  C  C72  1  0.786530  0.678170  0.936670  1.0  -0.0653
  C  C73  1  0.056800  0.513100  0.014000  1.0  0.0083
  C  C74  1  0.961300  0.443300  0.916000  1.0  0.0854
  C  C75  1  0.988500  0.441700  0.270000  1.0  -0.0628
  C  C76  1  0.723470  0.846430  0.347330  1.0  0.0083
  C  C77  1  0.627970  0.776630  0.249330  1.0  0.0854
  C  C78  1  0.655170  0.775030  0.603330  1.0  -0.0628
  C  C79  1  0.390130  0.179770  0.680670  1.0  0.0083
  C  C80  1  0.294630  0.109970  0.582670  1.0  0.0851
  C  C81  1  0.321830  0.108370  0.936670  1.0  -0.0628
  C  C82  1  0.486900  0.543700  0.014000  1.0  0.0063
  C  C83  1  0.556700  0.518000  0.916000  1.0  0.0886
  C  C84  1  0.558300  0.546800  0.270000  1.0  -0.0608
  C  C85  1  0.153570  0.877030  0.347330  1.0  0.0063
  C  C86  1  0.223370  0.851330  0.249330  1.0  0.0886
  C  C87  1  0.224970  0.880130  0.603330  1.0  -0.0609
  C  C88  1  0.820230  0.210370  0.680670  1.0  0.0063
  C  C89  1  0.890030  0.184670  0.582670  1.0  0.0886
  C  C90  1  0.891630  0.213470  0.936670  1.0  -0.0608
  N  N91  1  0.556700  0.006200  0.970600  1.0  -0.0318
  N  N92  1  0.223370  0.339530  0.303930  1.0  -0.0318
  N  N93  1  0.890030  0.672870  0.637270  1.0  -0.0318
  N  N94  1  0.993800  0.550500  0.970600  1.0  -0.032
  N  N95  1  0.660470  0.883830  0.303930  1.0  -0.032
  N  N96  1  0.327130  0.217170  0.637270  1.0  -0.032
  N  N97  1  0.449500  0.443300  0.970600  1.0  -0.0319
  N  N98  1  0.116170  0.776630  0.303930  1.0  -0.0319
  N  N99  1  0.782830  0.109970  0.637270  1.0  -0.0319
  N  N100  1  0.443300  0.993800  0.029400  1.0  -0.0317
  N  N101  1  0.109970  0.327130  0.362730  1.0  -0.0317
  N  N102  1  0.776630  0.660470  0.696070  1.0  -0.0317
  N  N103  1  0.006200  0.449500  0.029400  1.0  -0.0328
  N  N104  1  0.672870  0.782830  0.362730  1.0  -0.0328
  N  N105  1  0.339530  0.116170  0.696070  1.0  -0.0328
  N  N106  1  0.550500  0.556700  0.029400  1.0  -0.0314
  N  N107  1  0.217170  0.890030  0.362730  1.0  -0.0314
  N  N108  1  0.883830  0.223370  0.696070  1.0  -0.0314
  O  O109  1  0.614100  0.094700  0.518500  1.0  -0.5259
  O  O110  1  0.630600  0.010400  0.369200  1.0  -0.9537
  O  O111  1  0.661100  0.047200  0.728800  1.0  -0.8128
  O  O112  1  0.280770  0.428030  0.851830  1.0  -0.5259
  O  O113  1  0.297270  0.343730  0.702530  1.0  -0.9537
  O  O114  1  0.327770  0.380530  0.062130  1.0  -0.8128
  O  O115  1  0.947430  0.761370  0.185170  1.0  -0.5224
  O  O116  1  0.963930  0.677070  0.035870  1.0  -0.9537
  O  O117  1  0.994430  0.713870  0.395470  1.0  -0.8128
  O  O118  1  0.905300  0.519400  0.518500  1.0  -0.5251
  O  O119  1  0.989600  0.620200  0.369200  1.0  -0.9531
  O  O120  1  0.952800  0.613900  0.728800  1.0  -0.8112
  O  O121  1  0.571970  0.852730  0.851830  1.0  -0.5251
  O  O122  1  0.656270  0.953530  0.702530  1.0  -0.9531
  O  O123  1  0.619470  0.947230  0.062130  1.0  -0.8112
  O  O124  1  0.238630  0.186070  0.185170  1.0  -0.5251
  O  O125  1  0.322930  0.286870  0.035870  1.0  -0.9531
  O  O126  1  0.286130  0.280570  0.395470  1.0  -0.8112
  O  O127  1  0.480600  0.385900  0.518500  1.0  -0.5148
  O  O128  1  0.379800  0.369400  0.369200  1.0  -0.9537
  O  O129  1  0.386100  0.338900  0.728800  1.0  -0.8102
  O  O130  1  0.147270  0.719230  0.851830  1.0  -0.5148
  O  O131  1  0.046470  0.702730  0.702530  1.0  -0.9538
  O  O132  1  0.052770  0.672230  0.062130  1.0  -0.8102
  O  O133  1  0.813930  0.052570  0.185170  1.0  -0.5228
  O  O134  1  0.713130  0.036070  0.035870  1.0  -0.9535
  O  O135  1  0.719430  0.005570  0.395470  1.0  -0.8099
  O  O136  1  0.385900  0.905300  0.481500  1.0  -0.5243
  O  O137  1  0.369400  0.989600  0.630800  1.0  -0.9536
  O  O138  1  0.338900  0.952800  0.271200  1.0  -0.8123
  O  O139  1  0.052570  0.238630  0.814830  1.0  -0.5214
  O  O140  1  0.036070  0.322930  0.964130  1.0  -0.9536
  O  O141  1  0.005570  0.286130  0.604530  1.0  -0.8123
  O  O142  1  0.719230  0.571970  0.148170  1.0  -0.5243
  O  O143  1  0.702730  0.656270  0.297470  1.0  -0.9536
  O  O144  1  0.672230  0.619470  0.937870  1.0  -0.8123
  O  O145  1  0.094700  0.480600  0.481500  1.0  -0.5247
  O  O146  1  0.010400  0.379800  0.630800  1.0  -0.9549
  O  O147  1  0.047200  0.386100  0.271200  1.0  -0.8098
  O  O148  1  0.761370  0.813930  0.814830  1.0  -0.5247
  O  O149  1  0.677070  0.713130  0.964130  1.0  -0.9549
  O  O150  1  0.713870  0.719430  0.604530  1.0  -0.8098
  O  O151  1  0.428030  0.147270  0.148170  1.0  -0.5247
  O  O152  1  0.343730  0.046470  0.297470  1.0  -0.9549
  O  O153  1  0.380530  0.052770  0.937870  1.0  -0.8098
  O  O154  1  0.519400  0.614100  0.481500  1.0  -0.5124
  O  O155  1  0.620200  0.630600  0.630800  1.0  -0.9542
  O  O156  1  0.613900  0.661100  0.271200  1.0  -0.8113
  O  O157  1  0.186070  0.947430  0.814830  1.0  -0.5209
  O  O158  1  0.286870  0.963930  0.964130  1.0  -0.9539
  O  O159  1  0.280570  0.994430  0.604530  1.0  -0.811
  O  O160  1  0.852730  0.280770  0.148170  1.0  -0.5124
  O  O161  1  0.953530  0.297270  0.297470  1.0  -0.9542
  O  O162  1  0.947230  0.327770  0.937870  1.0  -0.8113
