# generated using pymatgen
data_AgH8(C5N2)2
_symmetry_space_group_name_H-M   'P 1'
_cell_length_a   15.62890000
_cell_length_b   15.62890000
_cell_length_c   15.62890000
_cell_angle_alpha   90.00000000
_cell_angle_beta   90.00000000
_cell_angle_gamma   90.00000000
_symmetry_Int_Tables_number   1
_chemical_formula_structural   AgH8(C5N2)2
_chemical_formula_sum   'Ag12 H96 C120 N48'
_cell_volume   3817.55442397
_cell_formula_units_Z   12
loop_
 _symmetry_equiv_pos_site_id
 _symmetry_equiv_pos_as_xyz
  1  'x, y, z'
loop_
 _atom_site_type_symbol
 _atom_site_label
 _atom_site_symmetry_multiplicity
 _atom_site_fract_x
 _atom_site_fract_y
 _atom_site_fract_z
 _atom_site_occupancy
 _atom_site_charge
  Ag  Ag1  1  0.625000  0.641280  0.891280  1.0  0.244
  Ag  Ag2  1  0.875000  0.358720  0.391280  1.0  0.2463
  Ag  Ag3  1  0.375000  0.141280  0.608720  1.0  0.2452
  Ag  Ag4  1  0.125000  0.858720  0.108720  1.0  0.2462
  Ag  Ag5  1  0.891280  0.625000  0.641280  1.0  0.2467
  Ag  Ag6  1  0.391280  0.875000  0.358720  1.0  0.2468
  Ag  Ag7  1  0.608720  0.375000  0.141280  1.0  0.2456
  Ag  Ag8  1  0.108720  0.125000  0.858720  1.0  0.2462
  Ag  Ag9  1  0.641280  0.891280  0.625000  1.0  0.2509
  Ag  Ag10  1  0.358720  0.391280  0.875000  1.0  0.2504
  Ag  Ag11  1  0.141280  0.608720  0.375000  1.0  0.2531
  Ag  Ag12  1  0.858720  0.108720  0.125000  1.0  0.2524
  H  H13  1  0.506900  0.779400  0.781600  1.0  0.0583
  H  H14  1  0.348800  0.796800  0.790100  1.0  0.1009
  H  H15  1  0.303100  0.703600  0.911300  1.0  0.0917
  H  H16  1  0.537000  0.667800  0.039000  1.0  0.1095
  H  H17  1  0.993100  0.220600  0.281600  1.0  0.0584
  H  H18  1  0.151200  0.203200  0.290100  1.0  0.1004
  H  H19  1  0.196900  0.296400  0.411300  1.0  0.0929
  H  H20  1  0.963000  0.332200  0.539000  1.0  0.1099
  H  H21  1  0.493100  0.279400  0.718400  1.0  0.0588
  H  H22  1  0.651200  0.296800  0.709900  1.0  0.1005
  H  H23  1  0.696900  0.203600  0.588700  1.0  0.0926
  H  H24  1  0.463000  0.167800  0.461000  1.0  0.11
  H  H25  1  0.006900  0.720600  0.218400  1.0  0.0589
  H  H26  1  0.848800  0.703200  0.209900  1.0  0.1004
  H  H27  1  0.803100  0.796400  0.088700  1.0  0.0913
  H  H28  1  0.037000  0.832200  0.961000  1.0  0.11
  H  H29  1  0.781600  0.506900  0.779400  1.0  0.0588
  H  H30  1  0.790100  0.348800  0.796800  1.0  0.1001
  H  H31  1  0.911300  0.303100  0.703600  1.0  0.0908
  H  H32  1  0.039000  0.537000  0.667800  1.0  0.1095
  H  H33  1  0.281600  0.993100  0.220600  1.0  0.0586
  H  H34  1  0.290100  0.151200  0.203200  1.0  0.1003
  H  H35  1  0.411300  0.196900  0.296400  1.0  0.0908
  H  H36  1  0.539000  0.963000  0.332200  1.0  0.11
  H  H37  1  0.718400  0.493100  0.279400  1.0  0.0586
  H  H38  1  0.709900  0.651200  0.296800  1.0  0.1004
  H  H39  1  0.588700  0.696900  0.203600  1.0  0.0906
  H  H40  1  0.461000  0.463000  0.167800  1.0  0.1105
  H  H41  1  0.218400  0.006900  0.720600  1.0  0.059
  H  H42  1  0.209900  0.848800  0.703200  1.0  0.1007
  H  H43  1  0.088700  0.803100  0.796400  1.0  0.0914
  H  H44  1  0.961000  0.037000  0.832200  1.0  0.1094
  H  H45  1  0.779400  0.781600  0.506900  1.0  0.0585
  H  H46  1  0.796800  0.790100  0.348800  1.0  0.0989
  H  H47  1  0.703600  0.911300  0.303100  1.0  0.0886
  H  H48  1  0.667800  0.039000  0.537000  1.0  0.1099
  H  H49  1  0.220600  0.281600  0.993100  1.0  0.0588
  H  H50  1  0.203200  0.290100  0.151200  1.0  0.0987
  H  H51  1  0.296400  0.411300  0.196900  1.0  0.0886
  H  H52  1  0.332200  0.539000  0.963000  1.0  0.1096
  H  H53  1  0.279400  0.718400  0.493100  1.0  0.0589
  H  H54  1  0.296800  0.709900  0.651200  1.0  0.099
  H  H55  1  0.203600  0.588700  0.696900  1.0  0.0884
  H  H56  1  0.167800  0.461000  0.463000  1.0  0.1098
  H  H57  1  0.720600  0.218400  0.006900  1.0  0.0586
  H  H58  1  0.703200  0.209900  0.848800  1.0  0.0989
  H  H59  1  0.796400  0.088700  0.803100  1.0  0.0883
  H  H60  1  0.832200  0.961000  0.037000  1.0  0.1093
  H  H61  1  0.529400  0.756900  0.468400  1.0  0.0589
  H  H62  1  0.546800  0.598800  0.459900  1.0  0.1003
  H  H63  1  0.453600  0.553100  0.338700  1.0  0.093
  H  H64  1  0.417800  0.787000  0.211000  1.0  0.109
  H  H65  1  0.970600  0.243100  0.968400  1.0  0.0591
  H  H66  1  0.953200  0.401200  0.959900  1.0  0.1
  H  H67  1  0.046400  0.446900  0.838700  1.0  0.0918
  H  H68  1  0.082200  0.213000  0.711000  1.0  0.1101
  H  H69  1  0.029400  0.743100  0.531600  1.0  0.0585
  H  H70  1  0.046800  0.901200  0.540100  1.0  0.1007
  H  H71  1  0.953600  0.946900  0.661300  1.0  0.0924
  H  H72  1  0.917800  0.713000  0.789000  1.0  0.1096
  H  H73  1  0.470600  0.256900  0.031600  1.0  0.0589
  H  H74  1  0.453200  0.098800  0.040100  1.0  0.1003
  H  H75  1  0.546400  0.053100  0.161300  1.0  0.0928
  H  H76  1  0.582200  0.287000  0.289000  1.0  0.1092
  H  H77  1  0.256900  0.031600  0.470600  1.0  0.0592
  H  H78  1  0.098800  0.040100  0.453200  1.0  0.1014
  H  H79  1  0.053100  0.161300  0.546400  1.0  0.0894
  H  H80  1  0.287000  0.289000  0.582200  1.0  0.1093
  H  H81  1  0.743100  0.531600  0.029400  1.0  0.0592
  H  H82  1  0.901200  0.540100  0.046800  1.0  0.1014
  H  H83  1  0.946900  0.661300  0.953600  1.0  0.0905
  H  H84  1  0.713000  0.789000  0.917800  1.0  0.1102
  H  H85  1  0.243100  0.968400  0.970600  1.0  0.0592
  H  H86  1  0.401200  0.959900  0.953200  1.0  0.1016
  H  H87  1  0.446900  0.838700  0.046400  1.0  0.0903
  H  H88  1  0.213000  0.711000  0.082200  1.0  0.1098
  H  H89  1  0.756900  0.468400  0.529400  1.0  0.059
  H  H90  1  0.598800  0.459900  0.546800  1.0  0.1012
  H  H91  1  0.553100  0.338700  0.453600  1.0  0.0889
  H  H92  1  0.787000  0.211000  0.417800  1.0  0.1096
  H  H93  1  0.531600  0.029400  0.743100  1.0  0.0583
  H  H94  1  0.540100  0.046800  0.901200  1.0  0.0976
  H  H95  1  0.661300  0.953600  0.946900  1.0  0.0888
  H  H96  1  0.789000  0.917800  0.713000  1.0  0.1105
  H  H97  1  0.031600  0.470600  0.256900  1.0  0.0581
  H  H98  1  0.040100  0.453200  0.098800  1.0  0.0978
  H  H99  1  0.161300  0.546400  0.053100  1.0  0.0887
  H  H100  1  0.289000  0.582200  0.287000  1.0  0.1107
  H  H101  1  0.468400  0.529400  0.756900  1.0  0.0575
  H  H102  1  0.459900  0.546800  0.598800  1.0  0.0985
  H  H103  1  0.338700  0.453600  0.553100  1.0  0.0887
  H  H104  1  0.211000  0.417800  0.787000  1.0  0.1094
  H  H105  1  0.968400  0.970600  0.243100  1.0  0.0583
  H  H106  1  0.959900  0.953200  0.401200  1.0  0.0981
  H  H107  1  0.838700  0.046400  0.446900  1.0  0.0888
  H  H108  1  0.711000  0.082200  0.213000  1.0  0.1106
  C  C109  1  0.471900  0.752000  0.821200  1.0  0.0192
  C  C110  1  0.383100  0.762700  0.824700  1.0  -0.1921
  C  C111  1  0.358600  0.711100  0.891200  1.0  -0.1161
  C  C112  1  0.435700  0.615200  0.992300  1.0  0.1571
  C  C113  1  0.501800  0.623500  0.050100  1.0  -0.1448
  C  C114  1  0.028100  0.248000  0.321200  1.0  0.0201
  C  C115  1  0.116900  0.237300  0.324700  1.0  -0.1917
  C  C116  1  0.141400  0.288900  0.391200  1.0  -0.1157
  C  C117  1  0.064300  0.384800  0.492300  1.0  0.1563
  C  C118  1  0.998200  0.376500  0.550100  1.0  -0.144
  C  C119  1  0.528100  0.252000  0.678800  1.0  0.0192
  C  C120  1  0.616900  0.262700  0.675300  1.0  -0.1931
  C  C121  1  0.641400  0.211100  0.608800  1.0  -0.1151
  C  C122  1  0.564300  0.115200  0.507700  1.0  0.1564
  C  C123  1  0.498200  0.123500  0.449900  1.0  -0.1447
  C  C124  1  0.971900  0.748000  0.178800  1.0  0.0195
  C  C125  1  0.883100  0.737300  0.175300  1.0  -0.1931
  C  C126  1  0.858600  0.788900  0.108800  1.0  -0.1151
  C  C127  1  0.935700  0.884800  0.007700  1.0  0.1568
  C  C128  1  0.001800  0.876500  0.949900  1.0  -0.1438
  C  C129  1  0.821200  0.471900  0.752000  1.0  0.0173
  C  C130  1  0.824700  0.383100  0.762700  1.0  -0.1926
  C  C131  1  0.891200  0.358600  0.711100  1.0  -0.1163
  C  C132  1  0.992300  0.435700  0.615200  1.0  0.1558
  C  C133  1  0.050100  0.501800  0.623500  1.0  -0.1436
  C  C134  1  0.321200  0.028100  0.248000  1.0  0.0171
  C  C135  1  0.324700  0.116900  0.237300  1.0  -0.1927
  C  C136  1  0.391200  0.141400  0.288900  1.0  -0.116
  C  C137  1  0.492300  0.064300  0.384800  1.0  0.1559
  C  C138  1  0.550100  0.998200  0.376500  1.0  -0.1453
  C  C139  1  0.678800  0.528100  0.252000  1.0  0.017
  C  C140  1  0.675300  0.616900  0.262700  1.0  -0.1915
  C  C141  1  0.608800  0.641400  0.211100  1.0  -0.1168
  C  C142  1  0.507700  0.564300  0.115200  1.0  0.157
  C  C143  1  0.449900  0.498200  0.123500  1.0  -0.1434
  C  C144  1  0.178800  0.971900  0.748000  1.0  0.0171
  C  C145  1  0.175300  0.883100  0.737300  1.0  -0.1909
  C  C146  1  0.108800  0.858600  0.788900  1.0  -0.1166
  C  C147  1  0.007700  0.935700  0.884800  1.0  0.1576
  C  C148  1  0.949900  0.001800  0.876500  1.0  -0.1418
  C  C149  1  0.752000  0.821200  0.471900  1.0  0.017
  C  C150  1  0.762700  0.824700  0.383100  1.0  -0.1956
  C  C151  1  0.711100  0.891200  0.358600  1.0  -0.115
  C  C152  1  0.615200  0.992300  0.435700  1.0  0.1557
  C  C153  1  0.623500  0.050100  0.501800  1.0  -0.1423
  C  C154  1  0.248000  0.321200  0.028100  1.0  0.0173
  C  C155  1  0.237300  0.324700  0.116900  1.0  -0.1946
  C  C156  1  0.288900  0.391200  0.141400  1.0  -0.113
  C  C157  1  0.384800  0.492300  0.064300  1.0  0.1554
  C  C158  1  0.376500  0.550100  0.998200  1.0  -0.142
  C  C159  1  0.252000  0.678800  0.528100  1.0  0.0172
  C  C160  1  0.262700  0.675300  0.616900  1.0  -0.1957
  C  C161  1  0.211100  0.608800  0.641400  1.0  -0.1142
  C  C162  1  0.115200  0.507700  0.564300  1.0  0.1555
  C  C163  1  0.123500  0.449900  0.498200  1.0  -0.1409
  C  C164  1  0.748000  0.178800  0.971900  1.0  0.0181
  C  C165  1  0.737300  0.175300  0.883100  1.0  -0.1953
  C  C166  1  0.788900  0.108800  0.858600  1.0  -0.1137
  C  C167  1  0.884800  0.007700  0.935700  1.0  0.1562
  C  C168  1  0.876500  0.949900  0.001800  1.0  -0.1421
  C  C169  1  0.502000  0.721900  0.428800  1.0  0.0184
  C  C170  1  0.512700  0.633100  0.425300  1.0  -0.1921
  C  C171  1  0.461100  0.608600  0.358800  1.0  -0.1161
  C  C172  1  0.365200  0.685700  0.257700  1.0  0.1555
  C  C173  1  0.373500  0.751800  0.199900  1.0  -0.1421
  C  C174  1  0.998000  0.278100  0.928800  1.0  0.0184
  C  C175  1  0.987300  0.366900  0.925300  1.0  -0.1931
  C  C176  1  0.038900  0.391400  0.858800  1.0  -0.1148
  C  C177  1  0.134800  0.314300  0.757700  1.0  0.1553
  C  C178  1  0.126500  0.248200  0.699900  1.0  -0.1445
  C  C179  1  0.002000  0.778100  0.571200  1.0  0.0177
  C  C180  1  0.012700  0.866900  0.574700  1.0  -0.1919
  C  C181  1  0.961100  0.891400  0.641200  1.0  -0.1162
  C  C182  1  0.865200  0.814300  0.742300  1.0  0.1552
  C  C183  1  0.873500  0.748200  0.800100  1.0  -0.1452
  C  C184  1  0.498000  0.221900  0.071200  1.0  0.0192
  C  C185  1  0.487300  0.133100  0.074700  1.0  -0.1904
  C  C186  1  0.538900  0.108600  0.141200  1.0  -0.1155
  C  C187  1  0.634800  0.185700  0.242300  1.0  0.1561
  C  C188  1  0.626500  0.251800  0.300100  1.0  -0.1432
  C  C189  1  0.221900  0.071200  0.498000  1.0  0.0169
  C  C190  1  0.133100  0.074700  0.487300  1.0  -0.1966
  C  C191  1  0.108600  0.141200  0.538900  1.0  -0.1164
  C  C192  1  0.185700  0.242300  0.634800  1.0  0.1561
  C  C193  1  0.251800  0.300100  0.626500  1.0  -0.1439
  C  C194  1  0.778100  0.571200  0.002000  1.0  0.0177
  C  C195  1  0.866900  0.574700  0.012700  1.0  -0.196
  C  C196  1  0.891400  0.641200  0.961100  1.0  -0.1164
  C  C197  1  0.814300  0.742300  0.865200  1.0  0.1552
  C  C198  1  0.748200  0.800100  0.873500  1.0  -0.1429
  C  C199  1  0.278100  0.928800  0.998000  1.0  0.0182
  C  C200  1  0.366900  0.925300  0.987300  1.0  -0.1959
  C  C201  1  0.391400  0.858800  0.038900  1.0  -0.1161
  C  C202  1  0.314300  0.757700  0.134800  1.0  0.1562
  C  C203  1  0.248200  0.699900  0.126500  1.0  -0.1428
  C  C204  1  0.721900  0.428800  0.502000  1.0  0.0178
  C  C205  1  0.633100  0.425300  0.512700  1.0  -0.1972
  C  C206  1  0.608600  0.358800  0.461100  1.0  -0.1166
  C  C207  1  0.685700  0.257700  0.365200  1.0  0.1564
  C  C208  1  0.751800  0.199900  0.373500  1.0  -0.1426
  C  C209  1  0.571200  0.002000  0.778100  1.0  0.0185
  C  C210  1  0.574700  0.012700  0.866900  1.0  -0.1931
  C  C211  1  0.641200  0.961100  0.891400  1.0  -0.113
  C  C212  1  0.742300  0.865200  0.814300  1.0  0.1564
  C  C213  1  0.800100  0.873500  0.748200  1.0  -0.1433
  C  C214  1  0.071200  0.498000  0.221900  1.0  0.0187
  C  C215  1  0.074700  0.487300  0.133100  1.0  -0.1925
  C  C216  1  0.141200  0.538900  0.108600  1.0  -0.1131
  C  C217  1  0.242300  0.634800  0.185700  1.0  0.1571
  C  C218  1  0.300100  0.626500  0.251800  1.0  -0.144
  C  C219  1  0.428800  0.502000  0.721900  1.0  0.0185
  C  C220  1  0.425300  0.512700  0.633100  1.0  -0.1915
  C  C221  1  0.358800  0.461100  0.608600  1.0  -0.1139
  C  C222  1  0.257700  0.365200  0.685700  1.0  0.1586
  C  C223  1  0.199900  0.373500  0.751800  1.0  -0.1421
  C  C224  1  0.928800  0.998000  0.278100  1.0  0.0172
  C  C225  1  0.925300  0.987300  0.366900  1.0  -0.1905
  C  C226  1  0.858800  0.038900  0.391400  1.0  -0.1134
  C  C227  1  0.757700  0.134800  0.314300  1.0  0.158
  C  C228  1  0.699900  0.126500  0.248200  1.0  -0.1413
  N  N229  1  0.500200  0.699600  0.879300  1.0  -0.3017
  N  N230  1  0.429710  0.673220  0.922300  1.0  0.0983
  N  N231  1  0.999800  0.300400  0.379300  1.0  -0.3026
  N  N232  1  0.070290  0.326780  0.422300  1.0  0.0981
  N  N233  1  0.499800  0.199600  0.620700  1.0  -0.3023
  N  N234  1  0.570290  0.173220  0.577700  1.0  0.0977
  N  N235  1  0.000200  0.800400  0.120700  1.0  -0.3016
  N  N236  1  0.929710  0.826780  0.077700  1.0  0.0974
  N  N237  1  0.879300  0.500200  0.699600  1.0  -0.3071
  N  N238  1  0.922300  0.429710  0.673220  1.0  0.0967
  N  N239  1  0.379300  0.999800  0.300400  1.0  -0.3075
  N  N240  1  0.422300  0.070290  0.326780  1.0  0.0974
  N  N241  1  0.620700  0.499800  0.199600  1.0  -0.3066
  N  N242  1  0.577700  0.570290  0.173220  1.0  0.0966
  N  N243  1  0.120700  0.000200  0.800400  1.0  -0.3066
  N  N244  1  0.077700  0.929710  0.826780  1.0  0.096
  N  N245  1  0.699600  0.879300  0.500200  1.0  -0.3009
  N  N246  1  0.673220  0.922300  0.429710  1.0  0.0979
  N  N247  1  0.300400  0.379300  0.999800  1.0  -0.3007
  N  N248  1  0.326780  0.422300  0.070290  1.0  0.0979
  N  N249  1  0.199600  0.620700  0.499800  1.0  -0.3012
  N  N250  1  0.173220  0.577700  0.570290  1.0  0.099
  N  N251  1  0.800400  0.120700  0.000200  1.0  -0.2996
  N  N252  1  0.826780  0.077700  0.929710  1.0  0.0987
  N  N253  1  0.449600  0.750200  0.370700  1.0  -0.3074
  N  N254  1  0.423220  0.679710  0.327700  1.0  0.0987
  N  N255  1  0.050400  0.249800  0.870700  1.0  -0.3054
  N  N256  1  0.076780  0.320290  0.827700  1.0  0.0984
  N  N257  1  0.949600  0.749800  0.629300  1.0  -0.3076
  N  N258  1  0.923220  0.820290  0.672300  1.0  0.0993
  N  N259  1  0.550400  0.250200  0.129300  1.0  -0.3059
  N  N260  1  0.576780  0.179710  0.172300  1.0  0.0992
  N  N261  1  0.250200  0.129300  0.550400  1.0  -0.3014
  N  N262  1  0.179710  0.172300  0.576780  1.0  0.0967
  N  N263  1  0.749800  0.629300  0.949600  1.0  -0.3018
  N  N264  1  0.820290  0.672300  0.923220  1.0  0.0962
  N  N265  1  0.249800  0.870700  0.050400  1.0  -0.3023
  N  N266  1  0.320290  0.827700  0.076780  1.0  0.0976
  N  N267  1  0.750200  0.370700  0.449600  1.0  -0.3019
  N  N268  1  0.679710  0.327700  0.423220  1.0  0.0973
  N  N269  1  0.629300  0.949600  0.749800  1.0  -0.3011
  N  N270  1  0.672300  0.923220  0.820290  1.0  0.097
  N  N271  1  0.129300  0.550400  0.250200  1.0  -0.3001
  N  N272  1  0.172300  0.576780  0.179710  1.0  0.0973
  N  N273  1  0.370700  0.449600  0.750200  1.0  -0.2989
  N  N274  1  0.327700  0.423220  0.679710  1.0  0.0969
  N  N275  1  0.870700  0.050400  0.249800  1.0  -0.3003
  N  N276  1  0.827700  0.076780  0.320290  1.0  0.0969
