# generated using pymatgen
data_AgH8(C5N2)2
_symmetry_space_group_name_H-M   'P 1'
_cell_length_a   15.18800000
_cell_length_b   15.18800000
_cell_length_c   15.18800000
_cell_angle_alpha   90.00000000
_cell_angle_beta   90.00000000
_cell_angle_gamma   90.00000000
_symmetry_Int_Tables_number   1
_chemical_formula_structural   AgH8(C5N2)2
_chemical_formula_sum   'Ag12 H96 C120 N48'
_cell_volume   3503.49712467
_cell_formula_units_Z   12
loop_
 _symmetry_equiv_pos_site_id
 _symmetry_equiv_pos_as_xyz
  1  'x, y, z'
loop_
 _atom_site_type_symbol
 _atom_site_label
 _atom_site_symmetry_multiplicity
 _atom_site_fract_x
 _atom_site_fract_y
 _atom_site_fract_z
 _atom_site_occupancy
 _atom_site_charge
  Ag  Ag1  1  0.870580  0.879420  0.375000  1.0  0.2436
  Ag  Ag2  1  0.629420  0.120580  0.875000  1.0  0.2433
  Ag  Ag3  1  0.129420  0.379420  0.125000  1.0  0.2433
  Ag  Ag4  1  0.370580  0.620580  0.625000  1.0  0.2438
  Ag  Ag5  1  0.375000  0.870580  0.879420  1.0  0.2337
  Ag  Ag6  1  0.875000  0.629420  0.120580  1.0  0.2345
  Ag  Ag7  1  0.125000  0.129420  0.379420  1.0  0.2337
  Ag  Ag8  1  0.625000  0.370580  0.620580  1.0  0.2342
  Ag  Ag9  1  0.879420  0.375000  0.870580  1.0  0.2388
  Ag  Ag10  1  0.120580  0.875000  0.629420  1.0  0.2373
  Ag  Ag11  1  0.379420  0.125000  0.129420  1.0  0.2376
  Ag  Ag12  1  0.620580  0.625000  0.370580  1.0  0.2389
  H  H13  1  0.973400  0.041000  0.253700  1.0  0.0634
  H  H14  1  0.963000  0.056000  0.093300  1.0  0.0941
  H  H15  1  0.845000  0.954800  0.045900  1.0  0.1029
  H  H16  1  0.784000  0.794000  0.074000  1.0  0.1179
  H  H17  1  0.526600  0.959000  0.753700  1.0  0.0637
  H  H18  1  0.537000  0.944000  0.593300  1.0  0.0938
  H  H19  1  0.655000  0.045200  0.545900  1.0  0.1032
  H  H20  1  0.716000  0.206000  0.574000  1.0  0.1184
  H  H21  1  0.026600  0.541000  0.246300  1.0  0.0638
  H  H22  1  0.037000  0.556000  0.406700  1.0  0.094
  H  H23  1  0.155000  0.454800  0.454100  1.0  0.1026
  H  H24  1  0.216000  0.294000  0.426000  1.0  0.1182
  H  H25  1  0.473400  0.459000  0.746300  1.0  0.0643
  H  H26  1  0.463000  0.444000  0.906700  1.0  0.094
  H  H27  1  0.345000  0.545200  0.954100  1.0  0.1024
  H  H28  1  0.284000  0.706000  0.926000  1.0  0.1178
  H  H29  1  0.253700  0.973400  0.041000  1.0  0.0642
  H  H30  1  0.093300  0.963000  0.056000  1.0  0.0936
  H  H31  1  0.045900  0.845000  0.954800  1.0  0.1037
  H  H32  1  0.074000  0.784000  0.794000  1.0  0.1167
  H  H33  1  0.753700  0.526600  0.959000  1.0  0.0655
  H  H34  1  0.593300  0.537000  0.944000  1.0  0.0942
  H  H35  1  0.545900  0.655000  0.045200  1.0  0.1038
  H  H36  1  0.574000  0.716000  0.206000  1.0  0.1173
  H  H37  1  0.246300  0.026600  0.541000  1.0  0.0648
  H  H38  1  0.406700  0.037000  0.556000  1.0  0.0933
  H  H39  1  0.454100  0.155000  0.454800  1.0  0.104
  H  H40  1  0.426000  0.216000  0.294000  1.0  0.1168
  H  H41  1  0.746300  0.473400  0.459000  1.0  0.0645
  H  H42  1  0.906700  0.463000  0.444000  1.0  0.0934
  H  H43  1  0.954100  0.345000  0.545200  1.0  0.1038
  H  H44  1  0.926000  0.284000  0.706000  1.0  0.1169
  H  H45  1  0.041000  0.253700  0.973400  1.0  0.0625
  H  H46  1  0.056000  0.093300  0.963000  1.0  0.0926
  H  H47  1  0.954800  0.045900  0.845000  1.0  0.1052
  H  H48  1  0.794000  0.074000  0.784000  1.0  0.1188
  H  H49  1  0.959000  0.753700  0.526600  1.0  0.0632
  H  H50  1  0.944000  0.593300  0.537000  1.0  0.0926
  H  H51  1  0.045200  0.545900  0.655000  1.0  0.1043
  H  H52  1  0.206000  0.574000  0.716000  1.0  0.1191
  H  H53  1  0.541000  0.246300  0.026600  1.0  0.0635
  H  H54  1  0.556000  0.406700  0.037000  1.0  0.0929
  H  H55  1  0.454800  0.454100  0.155000  1.0  0.1049
  H  H56  1  0.294000  0.426000  0.216000  1.0  0.119
  H  H57  1  0.459000  0.746300  0.473400  1.0  0.0629
  H  H58  1  0.444000  0.906700  0.463000  1.0  0.092
  H  H59  1  0.545200  0.954100  0.345000  1.0  0.1055
  H  H60  1  0.706000  0.926000  0.284000  1.0  0.118
  H  H61  1  0.791000  0.223400  0.996300  1.0  0.0639
  H  H62  1  0.806000  0.213000  0.156700  1.0  0.0944
  H  H63  1  0.704800  0.095000  0.204100  1.0  0.1024
  H  H64  1  0.544000  0.034000  0.176000  1.0  0.1182
  H  H65  1  0.709000  0.776600  0.496300  1.0  0.0646
  H  H66  1  0.694000  0.787000  0.656700  1.0  0.0943
  H  H67  1  0.795200  0.905000  0.704100  1.0  0.1027
  H  H68  1  0.956000  0.966000  0.676000  1.0  0.1187
  H  H69  1  0.291000  0.276600  0.003700  1.0  0.0643
  H  H70  1  0.306000  0.287000  0.843300  1.0  0.0942
  H  H71  1  0.204800  0.405000  0.795900  1.0  0.1033
  H  H72  1  0.044000  0.466000  0.824000  1.0  0.1194
  H  H73  1  0.209000  0.723400  0.503700  1.0  0.0633
  H  H74  1  0.194000  0.713000  0.343300  1.0  0.0939
  H  H75  1  0.295200  0.595000  0.295900  1.0  0.1033
  H  H76  1  0.456000  0.534000  0.324000  1.0  0.1192
  H  H77  1  0.723400  0.503700  0.209000  1.0  0.0646
  H  H78  1  0.713000  0.343300  0.194000  1.0  0.0938
  H  H79  1  0.595000  0.295900  0.295200  1.0  0.1036
  H  H80  1  0.534000  0.324000  0.456000  1.0  0.1172
  H  H81  1  0.276600  0.003700  0.291000  1.0  0.0638
  H  H82  1  0.287000  0.843300  0.306000  1.0  0.0935
  H  H83  1  0.405000  0.795900  0.204800  1.0  0.1035
  H  H84  1  0.466000  0.824000  0.044000  1.0  0.1168
  H  H85  1  0.776600  0.496300  0.709000  1.0  0.0643
  H  H86  1  0.787000  0.656700  0.694000  1.0  0.0935
  H  H87  1  0.905000  0.704100  0.795200  1.0  0.1043
  H  H88  1  0.966000  0.676000  0.956000  1.0  0.1175
  H  H89  1  0.223400  0.996300  0.791000  1.0  0.0645
  H  H90  1  0.213000  0.156700  0.806000  1.0  0.0931
  H  H91  1  0.095000  0.204100  0.704800  1.0  0.1044
  H  H92  1  0.034000  0.176000  0.544000  1.0  0.1169
  H  H93  1  0.003700  0.291000  0.276600  1.0  0.0636
  H  H94  1  0.843300  0.306000  0.287000  1.0  0.0929
  H  H95  1  0.795900  0.204800  0.405000  1.0  0.1037
  H  H96  1  0.824000  0.044000  0.466000  1.0  0.1174
  H  H97  1  0.503700  0.209000  0.723400  1.0  0.0628
  H  H98  1  0.343300  0.194000  0.713000  1.0  0.0928
  H  H99  1  0.295900  0.295200  0.595000  1.0  0.1044
  H  H100  1  0.324000  0.456000  0.534000  1.0  0.1174
  H  H101  1  0.996300  0.791000  0.223400  1.0  0.0628
  H  H102  1  0.156700  0.806000  0.213000  1.0  0.0922
  H  H103  1  0.204100  0.704800  0.095000  1.0  0.1048
  H  H104  1  0.176000  0.544000  0.034000  1.0  0.1177
  H  H105  1  0.496300  0.709000  0.776600  1.0  0.0634
  H  H106  1  0.656700  0.694000  0.787000  1.0  0.0925
  H  H107  1  0.704100  0.795200  0.905000  1.0  0.1041
  H  H108  1  0.676000  0.956000  0.966000  1.0  0.1176
  C  C109  1  0.933800  0.010400  0.218400  1.0  0.0421
  C  C110  1  0.929000  0.019500  0.128800  1.0  -0.1747
  C  C111  1  0.864300  0.964300  0.103200  1.0  -0.1291
  C  C112  1  0.761200  0.865000  0.184200  1.0  0.1322
  C  C113  1  0.753100  0.797400  0.124300  1.0  -0.1629
  C  C114  1  0.566200  0.989600  0.718400  1.0  0.0413
  C  C115  1  0.571000  0.980500  0.628800  1.0  -0.1746
  C  C116  1  0.635700  0.035700  0.603200  1.0  -0.1282
  C  C117  1  0.738800  0.135000  0.684200  1.0  0.1319
  C  C118  1  0.746900  0.202600  0.624300  1.0  -0.1629
  C  C119  1  0.066200  0.510400  0.281600  1.0  0.0409
  C  C120  1  0.071000  0.519500  0.371200  1.0  -0.1746
  C  C121  1  0.135700  0.464300  0.396800  1.0  -0.1265
  C  C122  1  0.238800  0.365000  0.315800  1.0  0.1308
  C  C123  1  0.246900  0.297400  0.375700  1.0  -0.1636
  C  C124  1  0.433800  0.489600  0.781600  1.0  0.0417
  C  C125  1  0.429000  0.480500  0.871200  1.0  -0.1735
  C  C126  1  0.364300  0.535700  0.896800  1.0  -0.1279
  C  C127  1  0.261200  0.635000  0.815800  1.0  0.1323
  C  C128  1  0.253100  0.702600  0.875700  1.0  -0.1639
  C  C129  1  0.218400  0.933800  0.010400  1.0  0.0383
  C  C130  1  0.128800  0.929000  0.019500  1.0  -0.1797
  C  C131  1  0.103200  0.864300  0.964300  1.0  -0.1283
  C  C132  1  0.184200  0.761200  0.865000  1.0  0.1334
  C  C133  1  0.124300  0.753100  0.797400  1.0  -0.1632
  C  C134  1  0.718400  0.566200  0.989600  1.0  0.0383
  C  C135  1  0.628800  0.571000  0.980500  1.0  -0.179
  C  C136  1  0.603200  0.635700  0.035700  1.0  -0.1284
  C  C137  1  0.684200  0.738800  0.135000  1.0  0.134
  C  C138  1  0.624300  0.746900  0.202600  1.0  -0.164
  C  C139  1  0.281600  0.066200  0.510400  1.0  0.0376
  C  C140  1  0.371200  0.071000  0.519500  1.0  -0.1784
  C  C141  1  0.396800  0.135700  0.464300  1.0  -0.1281
  C  C142  1  0.315800  0.238800  0.365000  1.0  0.1324
  C  C143  1  0.375700  0.246900  0.297400  1.0  -0.1654
  C  C144  1  0.781600  0.433800  0.489600  1.0  0.0366
  C  C145  1  0.871200  0.429000  0.480500  1.0  -0.179
  C  C146  1  0.896800  0.364300  0.535700  1.0  -0.1279
  C  C147  1  0.815800  0.261200  0.635000  1.0  0.1327
  C  C148  1  0.875700  0.253100  0.702600  1.0  -0.1626
  C  C149  1  0.010400  0.218400  0.933800  1.0  0.041
  C  C150  1  0.019500  0.128800  0.929000  1.0  -0.1749
  C  C151  1  0.964300  0.103200  0.864300  1.0  -0.1276
  C  C152  1  0.865000  0.184200  0.761200  1.0  0.1313
  C  C153  1  0.797400  0.124300  0.753100  1.0  -0.1601
  C  C154  1  0.989600  0.718400  0.566200  1.0  0.0406
  C  C155  1  0.980500  0.628800  0.571000  1.0  -0.1767
  C  C156  1  0.035700  0.603200  0.635700  1.0  -0.1275
  C  C157  1  0.135000  0.684200  0.738800  1.0  0.1323
  C  C158  1  0.202600  0.624300  0.746900  1.0  -0.16
  C  C159  1  0.510400  0.281600  0.066200  1.0  0.0403
  C  C160  1  0.519500  0.371200  0.071000  1.0  -0.177
  C  C161  1  0.464300  0.396800  0.135700  1.0  -0.1279
  C  C162  1  0.365000  0.315800  0.238800  1.0  0.1311
  C  C163  1  0.297400  0.375700  0.246900  1.0  -0.1606
  C  C164  1  0.489600  0.781600  0.433800  1.0  0.0408
  C  C165  1  0.480500  0.871200  0.429000  1.0  -0.1761
  C  C166  1  0.535700  0.896800  0.364300  1.0  -0.127
  C  C167  1  0.635000  0.815800  0.261200  1.0  0.1323
  C  C168  1  0.702600  0.875700  0.253100  1.0  -0.158
  C  C169  1  0.760400  0.183800  0.031600  1.0  0.0392
  C  C170  1  0.769500  0.179000  0.121200  1.0  -0.1768
  C  C171  1  0.714300  0.114300  0.146800  1.0  -0.1258
  C  C172  1  0.615000  0.011200  0.065800  1.0  0.1321
  C  C173  1  0.547400  0.003100  0.125700  1.0  -0.163
  C  C174  1  0.739600  0.816200  0.531600  1.0  0.0392
  C  C175  1  0.730500  0.821000  0.621200  1.0  -0.1756
  C  C176  1  0.785700  0.885700  0.646800  1.0  -0.1251
  C  C177  1  0.885000  0.988800  0.565800  1.0  0.133
  C  C178  1  0.952600  0.996900  0.625700  1.0  -0.163
  C  C179  1  0.260400  0.316200  0.968400  1.0  0.0398
  C  C180  1  0.269500  0.321000  0.878800  1.0  -0.1768
  C  C181  1  0.214300  0.385700  0.853200  1.0  -0.1273
  C  C182  1  0.115000  0.488800  0.934200  1.0  0.1325
  C  C183  1  0.047400  0.496900  0.874300  1.0  -0.164
  C  C184  1  0.239600  0.683800  0.468400  1.0  0.0384
  C  C185  1  0.230500  0.679000  0.378800  1.0  -0.1782
  C  C186  1  0.285700  0.614300  0.353200  1.0  -0.1267
  C  C187  1  0.385000  0.511200  0.434200  1.0  0.1329
  C  C188  1  0.452600  0.503100  0.374300  1.0  -0.1617
  C  C189  1  0.683800  0.468400  0.239600  1.0  0.0388
  C  C190  1  0.679000  0.378800  0.230500  1.0  -0.1755
  C  C191  1  0.614300  0.353200  0.285700  1.0  -0.131
  C  C192  1  0.511200  0.434200  0.385000  1.0  0.1321
  C  C193  1  0.503100  0.374300  0.452600  1.0  -0.1639
  C  C194  1  0.316200  0.968400  0.260400  1.0  0.038
  C  C195  1  0.321000  0.878800  0.269500  1.0  -0.1757
  C  C196  1  0.385700  0.853200  0.214300  1.0  -0.1296
  C  C197  1  0.488800  0.934200  0.115000  1.0  0.1314
  C  C198  1  0.496900  0.874300  0.047400  1.0  -0.165
  C  C199  1  0.816200  0.531600  0.739600  1.0  0.038
  C  C200  1  0.821000  0.621200  0.730500  1.0  -0.1765
  C  C201  1  0.885700  0.646800  0.785700  1.0  -0.1294
  C  C202  1  0.988800  0.565800  0.885000  1.0  0.1319
  C  C203  1  0.996900  0.625700  0.952600  1.0  -0.1638
  C  C204  1  0.183800  0.031600  0.760400  1.0  0.0392
  C  C205  1  0.179000  0.121200  0.769500  1.0  -0.1756
  C  C206  1  0.114300  0.146800  0.714300  1.0  -0.1308
  C  C207  1  0.011200  0.065800  0.615000  1.0  0.1324
  C  C208  1  0.003100  0.125700  0.547400  1.0  -0.1648
  C  C209  1  0.968400  0.260400  0.316200  1.0  0.0416
  C  C210  1  0.878800  0.269500  0.321000  1.0  -0.1777
  C  C211  1  0.853200  0.214300  0.385700  1.0  -0.1281
  C  C212  1  0.934200  0.115000  0.488800  1.0  0.1324
  C  C213  1  0.874300  0.047400  0.496900  1.0  -0.16
  C  C214  1  0.468400  0.239600  0.683800  1.0  0.0426
  C  C215  1  0.378800  0.230500  0.679000  1.0  -0.1751
  C  C216  1  0.353200  0.285700  0.614300  1.0  -0.127
  C  C217  1  0.434200  0.385000  0.511200  1.0  0.1322
  C  C218  1  0.374300  0.452600  0.503100  1.0  -0.1593
  C  C219  1  0.031600  0.760400  0.183800  1.0  0.0404
  C  C220  1  0.121200  0.769500  0.179000  1.0  -0.1757
  C  C221  1  0.146800  0.714300  0.114300  1.0  -0.1268
  C  C222  1  0.065800  0.615000  0.011200  1.0  0.1318
  C  C223  1  0.125700  0.547400  0.003100  1.0  -0.1595
  C  C224  1  0.531600  0.739600  0.816200  1.0  0.0406
  C  C225  1  0.621200  0.730500  0.821000  1.0  -0.1768
  C  C226  1  0.646800  0.785700  0.885700  1.0  -0.1274
  C  C227  1  0.565800  0.885000  0.988800  1.0  0.1316
  C  C228  1  0.625700  0.952600  0.996900  1.0  -0.1602
  N  N229  1  0.875900  0.953200  0.248800  1.0  -0.3235
  N  N230  1  0.833040  0.925500  0.176200  1.0  0.1239
  N  N231  1  0.624100  0.046800  0.748800  1.0  -0.3263
  N  N232  1  0.666960  0.074500  0.676200  1.0  0.1215
  N  N233  1  0.124100  0.453200  0.251200  1.0  -0.3247
  N  N234  1  0.166960  0.425500  0.323800  1.0  0.122
  N  N235  1  0.375900  0.546800  0.751200  1.0  -0.3238
  N  N236  1  0.333040  0.574500  0.823800  1.0  0.124
  N  N237  1  0.248800  0.875900  0.953200  1.0  -0.3267
  N  N238  1  0.176200  0.833040  0.925500  1.0  0.123
  N  N239  1  0.748800  0.624100  0.046800  1.0  -0.3257
  N  N240  1  0.676200  0.666960  0.074500  1.0  0.1224
  N  N241  1  0.251200  0.124100  0.453200  1.0  -0.3261
  N  N242  1  0.323800  0.166960  0.425500  1.0  0.122
  N  N243  1  0.751200  0.375900  0.546800  1.0  -0.3263
  N  N244  1  0.823800  0.333040  0.574500  1.0  0.1226
  N  N245  1  0.953200  0.248800  0.875900  1.0  -0.3301
  N  N246  1  0.925500  0.176200  0.833040  1.0  0.1238
  N  N247  1  0.046800  0.748800  0.624100  1.0  -0.328
  N  N248  1  0.074500  0.676200  0.666960  1.0  0.1245
  N  N249  1  0.453200  0.251200  0.124100  1.0  -0.3289
  N  N250  1  0.425500  0.323800  0.166960  1.0  0.1243
  N  N251  1  0.546800  0.751200  0.375900  1.0  -0.3286
  N  N252  1  0.574500  0.823800  0.333040  1.0  0.123
  N  N253  1  0.703200  0.125900  0.001200  1.0  -0.3244
  N  N254  1  0.675500  0.083040  0.073800  1.0  0.1227
  N  N255  1  0.796800  0.874100  0.501200  1.0  -0.324
  N  N256  1  0.824500  0.916960  0.573800  1.0  0.1223
  N  N257  1  0.203200  0.374100  0.998800  1.0  -0.3256
  N  N258  1  0.175500  0.416960  0.926200  1.0  0.1218
  N  N259  1  0.296800  0.625900  0.498800  1.0  -0.3247
  N  N260  1  0.324500  0.583040  0.426200  1.0  0.1222
  N  N261  1  0.625900  0.498800  0.296800  1.0  -0.3299
  N  N262  1  0.583040  0.426200  0.324500  1.0  0.1232
  N  N263  1  0.374100  0.998800  0.203200  1.0  -0.3311
  N  N264  1  0.416960  0.926200  0.175500  1.0  0.1223
  N  N265  1  0.874100  0.501200  0.796800  1.0  -0.3302
  N  N266  1  0.916960  0.573800  0.824500  1.0  0.1219
  N  N267  1  0.125900  0.001200  0.703200  1.0  -0.3307
  N  N268  1  0.083040  0.073800  0.675500  1.0  0.1236
  N  N269  1  0.998800  0.203200  0.374100  1.0  -0.3241
  N  N270  1  0.926200  0.175500  0.416960  1.0  0.1251
  N  N271  1  0.498800  0.296800  0.625900  1.0  -0.3257
  N  N272  1  0.426200  0.324500  0.583040  1.0  0.1236
  N  N273  1  0.001200  0.703200  0.125900  1.0  -0.3254
  N  N274  1  0.073800  0.675500  0.083040  1.0  0.1239
  N  N275  1  0.501200  0.796800  0.874100  1.0  -0.325
  N  N276  1  0.573800  0.824500  0.916960  1.0  0.1247
