# generated using pymatgen
data_KYbPt2(CN)8
_symmetry_space_group_name_H-M   'P 1'
_cell_length_a   8.85150000
_cell_length_b   15.67330000
_cell_length_c   17.94570000
_cell_angle_alpha   105.45900000
_cell_angle_beta   99.10000000
_cell_angle_gamma   98.58600000
_symmetry_Int_Tables_number   1
_chemical_formula_structural   KYbPt2(CN)8
_chemical_formula_sum   'K2 Yb2 Pt4 C16 N16'
_cell_volume   2320.93522821
_cell_formula_units_Z   2
loop_
 _symmetry_equiv_pos_site_id
 _symmetry_equiv_pos_as_xyz
  1  'x, y, z'
loop_
 _atom_site_type_symbol
 _atom_site_label
 _atom_site_symmetry_multiplicity
 _atom_site_fract_x
 _atom_site_fract_y
 _atom_site_fract_z
 _atom_site_occupancy
 _atom_site_charge
  K  K1  1  0.554300  0.706300  0.119100  1.0  1.6379
  K  K2  1  0.445700  0.293700  0.880900  1.0  1.6333
  Yb  Yb3  1  0.319630  0.168220  0.274520  1.0  1.0727
  Yb  Yb4  1  0.680370  0.831780  0.725480  1.0  1.0754
  Pt  Pt5  1  0.500000  0.000000  0.500000  1.0  0.0401
  Pt  Pt6  1  0.500000  0.500000  0.500000  1.0  0.0469
  Pt  Pt7  1  0.500000  0.000000  0.000000  1.0  0.074
  Pt  Pt8  1  0.000000  0.500000  0.000000  1.0  0.094
  C  C9  1  0.438000  0.062400  0.422100  1.0  0.2361
  C  C10  1  0.686000  0.101300  0.548500  1.0  0.1255
  C  C11  1  0.408000  0.375500  0.425600  1.0  0.2795
  C  C12  1  0.329000  0.493000  0.557600  1.0  0.0988
  C  C13  1  0.455000  0.062600  0.104100  1.0  0.2402
  C  C14  1  0.595000  0.914600  0.048400  1.0  0.132
  C  C15  1  0.171000  0.605300  0.009200  1.0  0.126
  C  C16  1  0.879000  0.581400  0.058100  1.0  0.1589
  C  C17  1  0.562000  0.937600  0.577900  1.0  0.2393
  C  C18  1  0.314000  0.898700  0.451500  1.0  0.1251
  C  C19  1  0.592000  0.624500  0.574400  1.0  0.2779
  C  C20  1  0.671000  0.507000  0.442400  1.0  0.0988
  C  C21  1  0.545000  0.937400  0.895900  1.0  0.2397
  C  C22  1  0.405000  0.085400  0.951600  1.0  0.1316
  C  C23  1  0.829000  0.394700  0.990800  1.0  0.1242
  C  C24  1  0.121000  0.418600  0.941900  1.0  0.1594
  N  N25  1  0.405000  0.101600  0.378500  1.0  -0.6273
  N  N26  1  0.791000  0.159600  0.575800  1.0  -0.3942
  N  N27  1  0.359800  0.305700  0.379600  1.0  -0.6446
  N  N28  1  0.232000  0.488800  0.594500  1.0  -0.3516
  N  N29  1  0.423100  0.096800  0.162200  1.0  -0.6232
  N  N30  1  0.647000  0.860900  0.075100  1.0  -0.5389
  N  N31  1  0.266000  0.664900  0.015400  1.0  -0.533
  N  N32  1  0.808000  0.627300  0.090400  1.0  -0.523
  N  N33  1  0.595000  0.898400  0.621500  1.0  -0.6263
  N  N34  1  0.209000  0.840400  0.424200  1.0  -0.3883
  N  N35  1  0.640200  0.694300  0.620400  1.0  -0.6465
  N  N36  1  0.768000  0.511200  0.405500  1.0  -0.3511
  N  N37  1  0.576900  0.903200  0.837800  1.0  -0.6309
  N  N38  1  0.353000  0.139100  0.924900  1.0  -0.5363
  N  N39  1  0.734000  0.335100  0.984600  1.0  -0.5296
  N  N40  1  0.192000  0.372700  0.909600  1.0  -0.5224
