# generated using pymatgen
data_KEuNi2(CN)8
_symmetry_space_group_name_H-M   'P 1'
_cell_length_a   8.79800000
_cell_length_b   15.62700000
_cell_length_c   17.96900000
_cell_angle_alpha   105.46000000
_cell_angle_beta   98.58000000
_cell_angle_gamma   98.15000000
_symmetry_Int_Tables_number   1
_chemical_formula_structural   KEuNi2(CN)8
_chemical_formula_sum   'K2 Eu2 Ni4 C16 N16'
_cell_volume   2311.34580111
_cell_formula_units_Z   2
loop_
 _symmetry_equiv_pos_site_id
 _symmetry_equiv_pos_as_xyz
  1  'x, y, z'
loop_
 _atom_site_type_symbol
 _atom_site_label
 _atom_site_symmetry_multiplicity
 _atom_site_fract_x
 _atom_site_fract_y
 _atom_site_fract_z
 _atom_site_occupancy
 _atom_site_charge
  K  K1  1  0.941400  0.296550  0.387120  1.0  1.271
  K  K2  1  0.058600  0.703450  0.612880  1.0  1.2727
  Eu  Eu3  1  0.826680  0.169920  0.775840  1.0  1.5564
  Eu  Eu4  1  0.173320  0.830080  0.224160  1.0  1.5576
  Ni  Ni5  1  0.000000  0.000000  0.000000  1.0  0.1587
  Ni  Ni6  1  0.000000  0.000000  0.500000  1.0  0.1096
  Ni  Ni7  1  0.000000  0.500000  0.000000  1.0  0.1352
  Ni  Ni8  1  0.500000  0.500000  0.500000  1.0  0.0171
  C  C9  1  0.943500  0.061200  0.926400  1.0  0.1493
  C  C10  1  0.832600  0.905100  0.950300  1.0  0.1669
  C  C11  1  0.962800  0.061000  0.597900  1.0  0.1664
  C  C12  1  0.928600  0.086600  0.457100  1.0  0.1882
  C  C13  1  0.917500  0.383700  0.932100  1.0  0.175
  C  C14  1  0.839000  0.491700  0.056200  1.0  0.1736
  C  C15  1  0.615500  0.418900  0.449800  1.0  0.1533
  C  C16  1  0.338500  0.405000  0.487700  1.0  0.1633
  C  C17  1  0.056500  0.938800  0.073600  1.0  0.1509
  C  C18  1  0.167400  0.094900  0.049700  1.0  0.1656
  C  C19  1  0.037200  0.939000  0.402100  1.0  0.1666
  C  C20  1  0.071400  0.913400  0.542900  1.0  0.1902
  C  C21  1  0.082500  0.616300  0.067900  1.0  0.1737
  C  C22  1  0.161000  0.508300  0.943800  1.0  0.1735
  C  C23  1  0.384500  0.581100  0.550200  1.0  0.1518
  C  C24  1  0.661500  0.595000  0.512300  1.0  0.1636
  N  N25  1  0.911900  0.100400  0.883100  1.0  -0.5808
  N  N26  1  0.727400  0.846400  0.923400  1.0  -0.3954
  N  N27  1  0.933900  0.097800  0.657500  1.0  -0.6743
  N  N28  1  0.882000  0.139900  0.430300  1.0  -0.5664
  N  N29  1  0.869400  0.313500  0.888300  1.0  -0.6654
  N  N30  1  0.743700  0.486000  0.092600  1.0  -0.3935
  N  N31  1  0.691000  0.371300  0.420700  1.0  -0.5381
  N  N32  1  0.236800  0.347900  0.479800  1.0  -0.5522
  N  N33  1  0.088100  0.899600  0.116900  1.0  -0.5799
  N  N34  1  0.272600  0.153600  0.076600  1.0  -0.3994
  N  N35  1  0.066100  0.902200  0.342500  1.0  -0.6751
  N  N36  1  0.118000  0.860100  0.569700  1.0  -0.5686
  N  N37  1  0.130600  0.686500  0.111700  1.0  -0.6697
  N  N38  1  0.256300  0.514000  0.907400  1.0  -0.3955
  N  N39  1  0.309000  0.628700  0.579300  1.0  -0.5378
  N  N40  1  0.763200  0.652100  0.520200  1.0  -0.5584
