# generated using pymatgen
data_NiH16C24N2O5
_symmetry_space_group_name_H-M   'P 1'
_cell_length_a   11.26900000
_cell_length_b   11.27000000
_cell_length_c   20.71100000
_cell_angle_alpha   77.60800000
_cell_angle_beta   77.60300000
_cell_angle_gamma   64.72700000
_symmetry_Int_Tables_number   1
_chemical_formula_structural   NiH16C24N2O5
_chemical_formula_sum   'Ni4 H64 C96 N8 O20'
_cell_volume   2300.48793615
_cell_formula_units_Z   4
loop_
 _symmetry_equiv_pos_site_id
 _symmetry_equiv_pos_as_xyz
  1  'x, y, z'
loop_
 _atom_site_type_symbol
 _atom_site_label
 _atom_site_symmetry_multiplicity
 _atom_site_fract_x
 _atom_site_fract_y
 _atom_site_fract_z
 _atom_site_occupancy
 _atom_site_charge
  Ni  Ni1  1  0.635380  0.465310  0.069260  1.0  0.8459
  Ni  Ni2  1  0.534700  0.364530  0.430810  1.0  0.8383
  Ni  Ni3  1  0.364620  0.534690  0.930740  1.0  0.8456
  Ni  Ni4  1  0.465300  0.635470  0.569190  1.0  0.8381
  H  H5  1  0.697300  0.685100  0.977100  1.0  0.0769
  H  H6  1  0.698700  0.886500  0.976400  1.0  0.1115
  H  H7  1  0.568700  0.860100  0.170300  1.0  0.1144
  H  H8  1  0.569700  0.658800  0.165400  1.0  0.0822
  H  H9  1  0.780400  0.023000  0.994800  1.0  0.1293
  H  H10  1  0.777500  0.225800  0.996700  1.0  0.0687
  H  H11  1  0.504800  0.284900  0.150600  1.0  0.0833
  H  H12  1  0.501100  0.082300  0.154500  1.0  0.116
  H  H13  1  0.339400  0.431100  0.334200  1.0  0.0826
  H  H14  1  0.141900  0.428900  0.329400  1.0  0.1127
  H  H15  1  0.114500  0.301200  0.523800  1.0  0.1105
  H  H16  1  0.315000  0.303900  0.522800  1.0  0.0758
  H  H17  1  0.714600  0.494400  0.349600  1.0  0.0816
  H  H18  1  0.916700  0.498800  0.345400  1.0  0.1118
  H  H19  1  0.774800  0.222600  0.503900  1.0  0.0703
  H  H20  1  0.977200  0.220200  0.505200  1.0  0.1265
  H  H21  1  0.850300  0.276400  0.258300  1.0  0.0971
  H  H22  1  0.036400  0.185000  0.312100  1.0  0.1256
  H  H23  1  0.258900  0.236900  0.140000  1.0  0.1084
  H  H24  1  0.075900  0.318400  0.085100  1.0  0.0946
  H  H25  1  0.274700  0.939700  0.241600  1.0  0.1241
  H  H26  1  0.354700  0.732400  0.304100  1.0  0.1026
  H  H27  1  0.437200  0.887600  0.436200  1.0  0.0957
  H  H28  1  0.362600  0.092900  0.372100  1.0  0.129
  H  H29  1  0.113100  0.562400  0.063500  1.0  0.0976
  H  H30  1  0.906500  0.636700  0.128300  1.0  0.13
  H  H31  1  0.060200  0.725700  0.257700  1.0  0.1219
  H  H32  1  0.267300  0.642900  0.196600  1.0  0.1039
  H  H33  1  0.815500  0.964500  0.187800  1.0  0.1279
  H  H34  1  0.724100  0.149400  0.241700  1.0  0.0975
  H  H35  1  0.681700  0.924100  0.414900  1.0  0.0959
  H  H36  1  0.763200  0.740700  0.360000  1.0  0.1055
  H  H37  1  0.302700  0.314900  0.022900  1.0  0.0769
  H  H38  1  0.301300  0.113500  0.023600  1.0  0.1117
  H  H39  1  0.431300  0.139900  0.829700  1.0  0.1152
  H  H40  1  0.430300  0.341200  0.834600  1.0  0.0819
  H  H41  1  0.219600  0.977000  0.005200  1.0  0.1301
  H  H42  1  0.222500  0.774200  0.003300  1.0  0.0686
  H  H43  1  0.495200  0.715100  0.849400  1.0  0.0839
  H  H44  1  0.498900  0.917700  0.845500  1.0  0.116
  H  H45  1  0.660600  0.568900  0.665800  1.0  0.0829
  H  H46  1  0.858100  0.571100  0.670600  1.0  0.1117
  H  H47  1  0.885500  0.698800  0.476200  1.0  0.111
  H  H48  1  0.685000  0.696100  0.477200  1.0  0.0746
  H  H49  1  0.285400  0.505600  0.650400  1.0  0.082
  H  H50  1  0.083300  0.501200  0.654600  1.0  0.1117
  H  H51  1  0.225200  0.777400  0.496100  1.0  0.0701
  H  H52  1  0.022800  0.779800  0.494800  1.0  0.1264
  H  H53  1  0.149700  0.723600  0.741700  1.0  0.0971
  H  H54  1  0.963600  0.815000  0.687900  1.0  0.1256
  H  H55  1  0.741100  0.763100  0.860000  1.0  0.1085
  H  H56  1  0.924100  0.681600  0.914900  1.0  0.0944
  H  H57  1  0.725300  0.060300  0.758400  1.0  0.1243
  H  H58  1  0.645300  0.267600  0.695900  1.0  0.1029
  H  H59  1  0.562800  0.112400  0.563800  1.0  0.0959
  H  H60  1  0.637400  0.907100  0.627900  1.0  0.1289
  H  H61  1  0.886900  0.437600  0.936500  1.0  0.0972
  H  H62  1  0.093500  0.363300  0.871700  1.0  0.1301
  H  H63  1  0.939800  0.274300  0.742300  1.0  0.1226
  H  H64  1  0.732700  0.357100  0.803400  1.0  0.1035
  H  H65  1  0.184500  0.035500  0.812200  1.0  0.128
  H  H66  1  0.275900  0.850600  0.758300  1.0  0.0977
  H  H67  1  0.318300  0.075900  0.585100  1.0  0.0963
  H  H68  1  0.236800  0.259300  0.640000  1.0  0.1061
  C  C69  1  0.669900  0.721000  0.016900  1.0  0.1727
  C  C70  1  0.671600  0.842300  0.016200  1.0  -0.2113
  C  C71  1  0.633800  0.898700  0.073300  1.0  0.0936
  C  C72  1  0.595200  0.827000  0.129800  1.0  -0.2009
  C  C73  1  0.595900  0.705500  0.126300  1.0  0.1718
  C  C74  1  0.636900  0.029300  0.073800  1.0  0.0859
  C  C75  1  0.722200  0.074900  0.026800  1.0  -0.2067
  C  C76  1  0.719500  0.197400  0.028300  1.0  0.1743
  C  C77  1  0.560300  0.231800  0.118500  1.0  0.1732
  C  C78  1  0.557100  0.110000  0.121000  1.0  -0.2029
  C  C79  1  0.293400  0.404100  0.373300  1.0  0.1721
  C  C80  1  0.174400  0.403600  0.370100  1.0  -0.205
  C  C81  1  0.101500  0.365800  0.426700  1.0  0.0997
  C  C82  1  0.158400  0.328300  0.483900  1.0  -0.2124
  C  C83  1  0.279200  0.330500  0.483100  1.0  0.1744
  C  C84  1  0.767900  0.439100  0.381700  1.0  0.1782
  C  C85  1  0.889500  0.442600  0.379000  1.0  -0.1985
  C  C86  1  0.971800  0.362500  0.426200  1.0  0.0965
  C  C87  1  0.803000  0.280500  0.472000  1.0  0.1702
  C  C88  1  0.925400  0.278200  0.473100  1.0  -0.2021
  C  C89  1  0.826600  0.363100  0.129900  1.0  0.6201
  C  C90  1  0.943900  0.305100  0.166200  1.0  -0.1621
  C  C91  1  0.932700  0.266600  0.234000  1.0  -0.0019
  C  C92  1  0.043900  0.213200  0.266300  1.0  -0.2158
  C  C93  1  0.164900  0.201900  0.230600  1.0  0.295
  C  C94  1  0.177000  0.242700  0.163700  1.0  -0.2017
  C  C95  1  0.067100  0.292800  0.131000  1.0  -0.0233
  C  C96  1  0.312100  0.034300  0.301000  1.0  0.2927
  C  C97  1  0.308900  0.928500  0.280600  1.0  -0.2401
  C  C98  1  0.356700  0.804600  0.318000  1.0  -0.0139
  C  C99  1  0.407300  0.787600  0.376200  1.0  -0.1961
  C  C100  1  0.406300  0.897100  0.396400  1.0  0.0021
  C  C101  1  0.360600  0.020300  0.358600  1.0  -0.217
  C  C102  1  0.461700  0.652600  0.416900  1.0  0.6647
  C  C103  1  0.347300  0.538900  0.083500  1.0  0.6648
  C  C104  1  0.211600  0.593200  0.123400  1.0  -0.1918
  C  C105  1  0.103400  0.593200  0.103300  1.0  0.0064
  C  C106  1  0.979100  0.638900  0.141700  1.0  -0.2156
  C  C107  1  0.965800  0.686700  0.199200  1.0  0.2976
  C  C108  1  0.071400  0.690500  0.219000  1.0  -0.2237
  C  C109  1  0.194800  0.642400  0.182100  1.0  -0.0095
  C  C110  1  0.797700  0.835000  0.269600  1.0  0.2978
  C  C111  1  0.787000  0.956900  0.233500  1.0  -0.2392
  C  C112  1  0.733900  0.066800  0.265900  1.0  0.0152
  C  C113  1  0.694900  0.055300  0.334000  1.0  -0.1599
  C  C114  1  0.707200  0.932800  0.369000  1.0  -0.0125
  C  C115  1  0.757300  0.822600  0.336300  1.0  -0.2104
  C  C116  1  0.637400  0.172800  0.370500  1.0  0.6223
  C  C117  1  0.330100  0.279000  0.983100  1.0  0.1722
  C  C118  1  0.328400  0.157700  0.983800  1.0  -0.2111
  C  C119  1  0.366200  0.101300  0.926700  1.0  0.0935
  C  C120  1  0.404800  0.173000  0.870200  1.0  -0.2017
  C  C121  1  0.404100  0.294500  0.873700  1.0  0.1708
  C  C122  1  0.363100  0.970700  0.926200  1.0  0.086
  C  C123  1  0.277800  0.925100  0.973200  1.0  -0.2068
  C  C124  1  0.280500  0.802600  0.971700  1.0  0.175
  C  C125  1  0.439700  0.768200  0.881500  1.0  0.1726
  C  C126  1  0.442900  0.890000  0.879000  1.0  -0.2025
  C  C127  1  0.706600  0.595900  0.626700  1.0  0.1734
  C  C128  1  0.825600  0.596400  0.629900  1.0  -0.2038
  C  C129  1  0.898500  0.634200  0.573300  1.0  0.0995
  C  C130  1  0.841600  0.671700  0.516100  1.0  -0.2125
  C  C131  1  0.720800  0.669500  0.516900  1.0  0.1741
  C  C132  1  0.232100  0.560900  0.618300  1.0  0.1784
  C  C133  1  0.110500  0.557400  0.621000  1.0  -0.1979
  C  C134  1  0.028200  0.637500  0.573800  1.0  0.0968
  C  C135  1  0.197000  0.719500  0.528000  1.0  0.1709
  C  C136  1  0.074600  0.721800  0.526900  1.0  -0.2031
  C  C137  1  0.173400  0.636900  0.870100  1.0  0.6189
  C  C138  1  0.056100  0.694900  0.833800  1.0  -0.1609
  C  C139  1  0.067300  0.733400  0.766000  1.0  -0.0036
  C  C140  1  0.956100  0.786800  0.733700  1.0  -0.2187
  C  C141  1  0.835100  0.798100  0.769400  1.0  0.2947
  C  C142  1  0.823000  0.757300  0.836300  1.0  -0.2012
  C  C143  1  0.932900  0.707200  0.869000  1.0  -0.0262
  C  C144  1  0.687900  0.965700  0.699000  1.0  0.2937
  C  C145  1  0.691100  0.071500  0.719400  1.0  -0.2384
  C  C146  1  0.643300  0.195400  0.682000  1.0  -0.0106
  C  C147  1  0.592700  0.212400  0.623800  1.0  -0.1954
  C  C148  1  0.593700  0.102900  0.603600  1.0  0.0023
  C  C149  1  0.639400  0.979700  0.641400  1.0  -0.2152
  C  C150  1  0.538300  0.347400  0.583100  1.0  0.6648
  C  C151  1  0.652700  0.461100  0.916500  1.0  0.6657
  C  C152  1  0.788400  0.406800  0.876600  1.0  -0.1915
  C  C153  1  0.896600  0.406800  0.896700  1.0  0.0065
  C  C154  1  0.020900  0.361100  0.858300  1.0  -0.2175
  C  C155  1  0.034200  0.313300  0.800800  1.0  0.2968
  C  C156  1  0.928600  0.309500  0.781000  1.0  -0.2214
  C  C157  1  0.805200  0.357600  0.817900  1.0  -0.0134
  C  C158  1  0.202300  0.165000  0.730400  1.0  0.2971
  C  C159  1  0.213000  0.043100  0.766500  1.0  -0.239
  C  C160  1  0.266100  0.933200  0.734100  1.0  0.0161
  C  C161  1  0.305100  0.944700  0.666000  1.0  -0.1596
  C  C162  1  0.292800  0.067200  0.631000  1.0  -0.0113
  C  C163  1  0.242700  0.177400  0.663700  1.0  -0.2091
  C  C164  1  0.362600  0.827200  0.629500  1.0  0.6219
  N  N165  1  0.631300  0.652400  0.071170  1.0  -0.2879
  N  N166  1  0.639300  0.277400  0.072060  1.0  -0.3017
  N  N167  1  0.347600  0.368300  0.428900  1.0  -0.2873
  N  N168  1  0.722700  0.360400  0.428090  1.0  -0.2979
  N  N169  1  0.368700  0.347600  0.928830  1.0  -0.2887
  N  N170  1  0.360700  0.722600  0.927940  1.0  -0.3011
  N  N171  1  0.652400  0.631700  0.571100  1.0  -0.2868
  N  N172  1  0.277300  0.639600  0.571910  1.0  -0.2963
  O  O173  1  0.843300  0.382600  0.067220  1.0  -0.5637
  O  O174  1  0.711600  0.393000  0.161920  1.0  -0.5513
  O  O175  1  0.441600  0.540100  0.105160  1.0  -0.5846
  O  O176  1  0.357000  0.491300  0.031800  1.0  -0.6249
  O  O177  1  0.459900  0.558300  0.394710  1.0  -0.584
  O  O178  1  0.508100  0.643000  0.468160  1.0  -0.6102
  O  O179  1  0.607100  0.287900  0.338130  1.0  -0.5514
  O  O180  1  0.617300  0.156500  0.432980  1.0  -0.5674
  O  O181  1  0.275500  0.158400  0.262400  1.0  -0.2757
  O  O182  1  0.841200  0.724200  0.237900  1.0  -0.2777
  O  O183  1  0.156700  0.617400  0.932780  1.0  -0.5644
  O  O184  1  0.288400  0.607000  0.838080  1.0  -0.5506
  O  O185  1  0.558400  0.459900  0.894840  1.0  -0.585
  O  O186  1  0.643000  0.508700  0.968200  1.0  -0.6251
  O  O187  1  0.540100  0.441700  0.605290  1.0  -0.5842
  O  O188  1  0.491900  0.357000  0.531840  1.0  -0.6098
  O  O189  1  0.392900  0.712100  0.661870  1.0  -0.5533
  O  O190  1  0.382700  0.843500  0.567020  1.0  -0.5659
  O  O191  1  0.724500  0.841600  0.737600  1.0  -0.277
  O  O192  1  0.158800  0.275800  0.762100  1.0  -0.2756
