# generated using pymatgen
data_AgH6C5N2
_symmetry_space_group_name_H-M   'P 1'
_cell_length_a   23.51000000
_cell_length_b   23.51000000
_cell_length_c   23.51000000
_cell_angle_alpha   109.47100000
_cell_angle_beta   109.47100000
_cell_angle_gamma   109.47100000
_symmetry_Int_Tables_number   1
_chemical_formula_structural   AgH6C5N2
_chemical_formula_sum   'Ag48 H288 C240 N96'
_cell_volume   10003.21364084
_cell_formula_units_Z   48
loop_
 _symmetry_equiv_pos_site_id
 _symmetry_equiv_pos_as_xyz
  1  'x, y, z'
loop_
 _atom_site_type_symbol
 _atom_site_label
 _atom_site_symmetry_multiplicity
 _atom_site_fract_x
 _atom_site_fract_y
 _atom_site_fract_z
 _atom_site_occupancy
 _atom_site_charge
  Ag  Ag1  1  0.016080  0.596040  0.051740  1.0  0.2807
  Ag  Ag2  1  0.635810  0.644200  0.051110  1.0  0.3481
  Ag  Ag3  1  0.044300  0.964340  0.448260  1.0  0.3012
  Ag  Ag4  1  0.093090  0.584700  0.448890  1.0  0.2943
  Ag  Ag5  1  0.455700  0.903960  0.920040  1.0  0.2681
  Ag  Ag6  1  0.406910  0.855800  0.491610  1.0  0.3147
  Ag  Ag7  1  0.483920  0.535660  0.579960  1.0  0.2769
  Ag  Ag8  1  0.864190  0.915300  0.008390  1.0  0.3154
  Ag  Ag9  1  0.420040  0.455700  0.403960  1.0  0.2676
  Ag  Ag10  1  0.991610  0.406910  0.355800  1.0  0.305
  Ag  Ag11  1  0.079960  0.483920  0.035660  1.0  0.2793
  Ag  Ag12  1  0.508390  0.864190  0.415300  1.0  0.3101
  Ag  Ag13  1  0.551740  0.016080  0.096040  1.0  0.2787
  Ag  Ag14  1  0.551110  0.635810  0.144200  1.0  0.3556
  Ag  Ag15  1  0.948260  0.044300  0.464340  1.0  0.3044
  Ag  Ag16  1  0.948890  0.093090  0.084700  1.0  0.3041
  Ag  Ag17  1  0.964340  0.948260  0.544300  1.0  0.2973
  Ag  Ag18  1  0.584700  0.948890  0.593090  1.0  0.3034
  Ag  Ag19  1  0.596040  0.551740  0.516080  1.0  0.2827
  Ag  Ag20  1  0.644200  0.551110  0.135810  1.0  0.354
  Ag  Ag21  1  0.535660  0.079960  0.983920  1.0  0.2811
  Ag  Ag22  1  0.915300  0.508390  0.364190  1.0  0.3073
  Ag  Ag23  1  0.903960  0.420040  0.955700  1.0  0.2646
  Ag  Ag24  1  0.855800  0.991610  0.906910  1.0  0.3063
  Ag  Ag25  1  0.464340  0.544300  0.948260  1.0  0.3037
  Ag  Ag26  1  0.084700  0.593090  0.948890  1.0  0.294
  Ag  Ag27  1  0.096040  0.516080  0.551740  1.0  0.2815
  Ag  Ag28  1  0.144200  0.135810  0.551110  1.0  0.3479
  Ag  Ag29  1  0.035660  0.983920  0.079960  1.0  0.2777
  Ag  Ag30  1  0.415300  0.364190  0.508390  1.0  0.3147
  Ag  Ag31  1  0.403960  0.955700  0.420040  1.0  0.2681
  Ag  Ag32  1  0.355800  0.906910  0.991610  1.0  0.3151
  Ag  Ag33  1  0.516080  0.051740  0.596040  1.0  0.2793
  Ag  Ag34  1  0.135810  0.051110  0.644200  1.0  0.3525
  Ag  Ag35  1  0.544300  0.448260  0.964340  1.0  0.3016
  Ag  Ag36  1  0.593090  0.448890  0.584700  1.0  0.3048
  Ag  Ag37  1  0.955700  0.920040  0.903960  1.0  0.2676
  Ag  Ag38  1  0.906910  0.491610  0.855800  1.0  0.3059
  Ag  Ag39  1  0.983920  0.579960  0.535660  1.0  0.2783
  Ag  Ag40  1  0.364190  0.008390  0.915300  1.0  0.3086
  Ag  Ag41  1  0.920040  0.403960  0.455700  1.0  0.2651
  Ag  Ag42  1  0.491610  0.355800  0.406910  1.0  0.3091
  Ag  Ag43  1  0.579960  0.035660  0.483920  1.0  0.2807
  Ag  Ag44  1  0.008390  0.415300  0.864190  1.0  0.3067
  Ag  Ag45  1  0.051740  0.096040  0.016080  1.0  0.2829
  Ag  Ag46  1  0.051110  0.144200  0.635810  1.0  0.3559
  Ag  Ag47  1  0.448260  0.464340  0.044300  1.0  0.2972
  Ag  Ag48  1  0.448890  0.084700  0.093090  1.0  0.3039
  H  H49  1  0.888000  0.681000  0.096600  1.0  0.1271
  H  H50  1  0.915200  0.685500  0.044100  1.0  0.1193
  H  H51  1  0.961400  0.687300  0.112100  1.0  0.1247
  H  H52  1  0.709200  0.406500  0.951500  1.0  0.1121
  H  H53  1  0.762500  0.378600  0.960700  1.0  0.1266
  H  H54  1  0.726600  0.380100  0.891500  1.0  0.1287
  H  H55  1  0.693300  0.622400  0.949300  1.0  0.1288
  H  H56  1  0.753500  0.607800  0.945700  1.0  0.1129
  H  H57  1  0.772000  0.677000  0.008400  1.0  0.1176
  H  H58  1  0.708400  0.451200  0.087400  1.0  0.1371
  H  H59  1  0.775900  0.519800  0.153100  1.0  0.129
  H  H60  1  0.780700  0.475300  0.089200  1.0  0.1213
  H  H61  1  0.084400  0.791400  0.403400  1.0  0.1225
  H  H62  1  0.141400  0.871100  0.455900  1.0  0.1194
  H  H63  1  0.075200  0.849300  0.387900  1.0  0.1222
  H  H64  1  0.955000  0.757700  0.548500  1.0  0.1156
  H  H65  1  0.917900  0.801800  0.539300  1.0  0.1312
  H  H66  1  0.988600  0.835100  0.608500  1.0  0.1291
  H  H67  1  0.173100  0.744000  0.550700  1.0  0.1264
  H  H68  1  0.162100  0.807800  0.554300  1.0  0.1145
  H  H69  1  0.168600  0.763600  0.491600  1.0  0.116
  H  H70  1  0.863800  0.621000  0.412600  1.0  0.1358
  H  H71  1  0.866700  0.622800  0.346900  1.0  0.1292
  H  H72  1  0.886100  0.691500  0.410800  1.0  0.1209
  H  H73  1  0.415600  0.819000  0.707000  1.0  0.1248
  H  H74  1  0.358600  0.814500  0.729700  1.0  0.117
  H  H75  1  0.424800  0.812700  0.774100  1.0  0.125
  H  H76  1  0.545000  0.093500  0.802700  1.0  0.1134
  H  H77  1  0.582100  0.121400  0.883900  1.0  0.1283
  H  H78  1  0.511400  0.119900  0.846500  1.0  0.1279
  H  H79  1  0.326900  0.877600  0.570900  1.0  0.125
  H  H80  1  0.337900  0.892200  0.645700  1.0  0.1135
  H  H81  1  0.331400  0.823000  0.595000  1.0  0.1204
  H  H82  1  0.636200  0.048800  0.757200  1.0  0.1347
  H  H83  1  0.633300  0.980200  0.756100  1.0  0.1303
  H  H84  1  0.613900  0.024700  0.805400  1.0  0.1212
  H  H85  1  0.612000  0.708600  0.793000  1.0  0.1238
  H  H86  1  0.584800  0.628900  0.770300  1.0  0.1183
  H  H87  1  0.538600  0.650700  0.725900  1.0  0.127
  H  H88  1  0.790800  0.742300  0.697300  1.0  0.1165
  H  H89  1  0.737500  0.698200  0.616100  1.0  0.1254
  H  H90  1  0.773400  0.664900  0.653500  1.0  0.1301
  H  H91  1  0.806700  0.756000  0.929100  1.0  0.1257
  H  H92  1  0.746500  0.692200  0.854300  1.0  0.1146
  H  H93  1  0.728000  0.736400  0.905000  1.0  0.1171
  H  H94  1  0.791600  0.879000  0.742800  1.0  0.1347
  H  H95  1  0.724100  0.877200  0.743900  1.0  0.1314
  H  H96  1  0.719300  0.808500  0.694600  1.0  0.1237
  H  H97  1  0.207000  0.415600  0.319000  1.0  0.1265
  H  H98  1  0.229700  0.358600  0.314500  1.0  0.1203
  H  H99  1  0.274100  0.424800  0.312700  1.0  0.1244
  H  H100  1  0.302700  0.545000  0.593500  1.0  0.1161
  H  H101  1  0.383900  0.582100  0.621400  1.0  0.1291
  H  H102  1  0.346500  0.511400  0.619900  1.0  0.1282
  H  H103  1  0.070900  0.326900  0.377600  1.0  0.1259
  H  H104  1  0.145700  0.337900  0.392200  1.0  0.115
  H  H105  1  0.095000  0.331400  0.323000  1.0  0.1158
  H  H106  1  0.257200  0.636200  0.548800  1.0  0.1341
  H  H107  1  0.256100  0.633300  0.480200  1.0  0.1287
  H  H108  1  0.305400  0.613900  0.524700  1.0  0.121
  H  H109  1  0.293000  0.612000  0.208600  1.0  0.1266
  H  H110  1  0.270300  0.584800  0.128900  1.0  0.1201
  H  H111  1  0.225900  0.538600  0.150700  1.0  0.1262
  H  H112  1  0.197300  0.790800  0.242300  1.0  0.1157
  H  H113  1  0.116100  0.737500  0.198200  1.0  0.1281
  H  H114  1  0.153500  0.773400  0.164900  1.0  0.1291
  H  H115  1  0.429100  0.806700  0.256000  1.0  0.1296
  H  H116  1  0.354300  0.746500  0.192200  1.0  0.1134
  H  H117  1  0.405000  0.728000  0.236400  1.0  0.1182
  H  H118  1  0.242800  0.791600  0.379000  1.0  0.1338
  H  H119  1  0.243900  0.724100  0.377200  1.0  0.13
  H  H120  1  0.194600  0.719300  0.308500  1.0  0.1237
  H  H121  1  0.596600  0.888000  0.181000  1.0  0.125
  H  H122  1  0.544100  0.915200  0.185500  1.0  0.1189
  H  H123  1  0.612100  0.961400  0.187300  1.0  0.1258
  H  H124  1  0.451500  0.709200  0.906500  1.0  0.1148
  H  H125  1  0.460700  0.762500  0.878600  1.0  0.1267
  H  H126  1  0.391500  0.726600  0.880100  1.0  0.1296
  H  H127  1  0.449300  0.693300  0.122400  1.0  0.1286
  H  H128  1  0.445700  0.753500  0.107800  1.0  0.1119
  H  H129  1  0.508400  0.772000  0.177000  1.0  0.1162
  H  H130  1  0.587400  0.708400  0.951200  1.0  0.1363
  H  H131  1  0.653100  0.775900  0.019800  1.0  0.1305
  H  H132  1  0.589200  0.780700  0.975300  1.0  0.1261
  H  H133  1  0.903400  0.084400  0.291400  1.0  0.1237
  H  H134  1  0.955900  0.141400  0.371100  1.0  0.1207
  H  H135  1  0.887900  0.075200  0.349300  1.0  0.1257
  H  H136  1  0.048500  0.955000  0.257700  1.0  0.1163
  H  H137  1  0.039300  0.917900  0.301800  1.0  0.1292
  H  H138  1  0.108500  0.988600  0.335100  1.0  0.1294
  H  H139  1  0.050700  0.173100  0.244000  1.0  0.1269
  H  H140  1  0.054300  0.162100  0.307800  1.0  0.1133
  H  H141  1  0.991600  0.168600  0.263600  1.0  0.1212
  H  H142  1  0.912600  0.863800  0.121000  1.0  0.1341
  H  H143  1  0.846900  0.866700  0.122800  1.0  0.132
  H  H144  1  0.910800  0.886100  0.191500  1.0  0.1224
  H  H145  1  0.791400  0.903400  0.584400  1.0  0.126
  H  H146  1  0.871100  0.955900  0.641400  1.0  0.1171
  H  H147  1  0.849300  0.887900  0.575200  1.0  0.1255
  H  H148  1  0.757700  0.048500  0.455000  1.0  0.1133
  H  H149  1  0.801800  0.039300  0.417900  1.0  0.1262
  H  H150  1  0.835100  0.108500  0.488600  1.0  0.1287
  H  H151  1  0.744000  0.050700  0.673100  1.0  0.1261
  H  H152  1  0.807800  0.054300  0.662100  1.0  0.1139
  H  H153  1  0.763600  0.991600  0.668600  1.0  0.1175
  H  H154  1  0.621000  0.912600  0.363800  1.0  0.1331
  H  H155  1  0.622800  0.846900  0.366700  1.0  0.1327
  H  H156  1  0.691500  0.910800  0.386100  1.0  0.1212
  H  H157  1  0.681000  0.596600  0.388000  1.0  0.1247
  H  H158  1  0.685500  0.544100  0.415200  1.0  0.1184
  H  H159  1  0.687300  0.612100  0.461400  1.0  0.1255
  H  H160  1  0.406500  0.451500  0.209200  1.0  0.1167
  H  H161  1  0.378600  0.460700  0.262500  1.0  0.1291
  H  H162  1  0.380100  0.391500  0.226600  1.0  0.1271
  H  H163  1  0.622400  0.449300  0.193300  1.0  0.1266
  H  H164  1  0.607800  0.445700  0.253500  1.0  0.1135
  H  H165  1  0.677000  0.508400  0.272000  1.0  0.1191
  H  H166  1  0.451200  0.587400  0.208400  1.0  0.1341
  H  H167  1  0.519800  0.653100  0.275900  1.0  0.131
  H  H168  1  0.475300  0.589200  0.280700  1.0  0.1252
  H  H169  1  0.708600  0.293000  0.112000  1.0  0.1261
  H  H170  1  0.628900  0.270300  0.084800  1.0  0.117
  H  H171  1  0.650700  0.225900  0.038600  1.0  0.1244
  H  H172  1  0.742300  0.197300  0.290800  1.0  0.114
  H  H173  1  0.698200  0.116100  0.237500  1.0  0.1288
  H  H174  1  0.664900  0.153500  0.273400  1.0  0.1283
  H  H175  1  0.756000  0.429100  0.306700  1.0  0.1265
  H  H176  1  0.692200  0.354300  0.246500  1.0  0.1137
  H  H177  1  0.736400  0.405000  0.228000  1.0  0.115
  H  H178  1  0.879000  0.242800  0.291600  1.0  0.1353
  H  H179  1  0.877200  0.243900  0.224100  1.0  0.1291
  H  H180  1  0.808500  0.194600  0.219300  1.0  0.1219
  H  H181  1  0.819000  0.207000  0.915600  1.0  0.128
  H  H182  1  0.814500  0.229700  0.858600  1.0  0.12
  H  H183  1  0.812700  0.274100  0.924800  1.0  0.1266
  H  H184  1  0.093500  0.302700  0.045000  1.0  0.114
  H  H185  1  0.121400  0.383900  0.082100  1.0  0.1278
  H  H186  1  0.119900  0.346500  0.011400  1.0  0.1289
  H  H187  1  0.877600  0.070900  0.826900  1.0  0.1293
  H  H188  1  0.892200  0.145700  0.837900  1.0  0.1136
  H  H189  1  0.823000  0.095000  0.831400  1.0  0.1199
  H  H190  1  0.048800  0.257200  0.136200  1.0  0.1347
  H  H191  1  0.980200  0.256100  0.133300  1.0  0.1289
  H  H192  1  0.024700  0.305400  0.113900  1.0  0.1199
  H  H193  1  0.291400  0.584400  0.903400  1.0  0.1271
  H  H194  1  0.371100  0.641400  0.955900  1.0  0.1196
  H  H195  1  0.349300  0.575200  0.887900  1.0  0.1241
  H  H196  1  0.257700  0.455000  0.048500  1.0  0.1157
  H  H197  1  0.301800  0.417900  0.039300  1.0  0.1292
  H  H198  1  0.335100  0.488600  0.108500  1.0  0.1283
  H  H199  1  0.244000  0.673100  0.050700  1.0  0.1255
  H  H200  1  0.307800  0.662100  0.054300  1.0  0.1146
  H  H201  1  0.263600  0.668600  0.991600  1.0  0.1158
  H  H202  1  0.121000  0.363800  0.912600  1.0  0.1336
  H  H203  1  0.122800  0.366700  0.846900  1.0  0.1292
  H  H204  1  0.191500  0.386100  0.910800  1.0  0.1215
  H  H205  1  0.181000  0.388000  0.596600  1.0  0.1261
  H  H206  1  0.185500  0.415200  0.544100  1.0  0.12
  H  H207  1  0.187300  0.461400  0.612100  1.0  0.126
  H  H208  1  0.906500  0.209200  0.451500  1.0  0.1157
  H  H209  1  0.878600  0.262500  0.460700  1.0  0.1277
  H  H210  1  0.880100  0.226600  0.391500  1.0  0.1295
  H  H211  1  0.122400  0.193300  0.449300  1.0  0.1303
  H  H212  1  0.107800  0.253500  0.445700  1.0  0.1135
  H  H213  1  0.177000  0.272000  0.508400  1.0  0.118
  H  H214  1  0.951200  0.208400  0.587400  1.0  0.1347
  H  H215  1  0.019800  0.275900  0.653100  1.0  0.1297
  H  H216  1  0.975300  0.280700  0.589200  1.0  0.1243
  H  H217  1  0.208600  0.112000  0.293000  1.0  0.1257
  H  H218  1  0.128900  0.084800  0.270300  1.0  0.1192
  H  H219  1  0.150700  0.038600  0.225900  1.0  0.125
  H  H220  1  0.242300  0.290800  0.197300  1.0  0.1151
  H  H221  1  0.198200  0.237500  0.116100  1.0  0.1265
  H  H222  1  0.164900  0.273400  0.153500  1.0  0.1297
  H  H223  1  0.256000  0.306700  0.429100  1.0  0.1282
  H  H224  1  0.192200  0.246500  0.354300  1.0  0.1117
  H  H225  1  0.236400  0.228000  0.405000  1.0  0.1167
  H  H226  1  0.379000  0.291600  0.242800  1.0  0.1343
  H  H227  1  0.377200  0.224100  0.243900  1.0  0.13
  H  H228  1  0.308500  0.219300  0.194600  1.0  0.1253
  H  H229  1  0.319000  0.915600  0.207000  1.0  0.1237
  H  H230  1  0.314500  0.858600  0.229700  1.0  0.1199
  H  H231  1  0.312700  0.924800  0.274100  1.0  0.1251
  H  H232  1  0.593500  0.045000  0.302700  1.0  0.1161
  H  H233  1  0.621400  0.082100  0.383900  1.0  0.1282
  H  H234  1  0.619900  0.011400  0.346500  1.0  0.1297
  H  H235  1  0.377600  0.826900  0.070900  1.0  0.1274
  H  H236  1  0.392200  0.837900  0.145700  1.0  0.1134
  H  H237  1  0.323000  0.831400  0.095000  1.0  0.1208
  H  H238  1  0.548800  0.136200  0.257200  1.0  0.1346
  H  H239  1  0.480200  0.133300  0.256100  1.0  0.1305
  H  H240  1  0.524700  0.113900  0.305400  1.0  0.1222
  H  H241  1  0.388000  0.096600  0.681000  1.0  0.1257
  H  H242  1  0.415200  0.044100  0.685500  1.0  0.1165
  H  H243  1  0.461400  0.112100  0.687300  1.0  0.1255
  H  H244  1  0.209200  0.951500  0.406500  1.0  0.1132
  H  H245  1  0.262500  0.960700  0.378600  1.0  0.126
  H  H246  1  0.226600  0.891500  0.380100  1.0  0.1277
  H  H247  1  0.193300  0.949300  0.622400  1.0  0.1262
  H  H248  1  0.253500  0.945700  0.607800  1.0  0.1135
  H  H249  1  0.272000  0.008400  0.677000  1.0  0.1164
  H  H250  1  0.208400  0.087400  0.451200  1.0  0.134
  H  H251  1  0.275900  0.153100  0.519800  1.0  0.1308
  H  H252  1  0.280700  0.089200  0.475300  1.0  0.1239
  H  H253  1  0.584400  0.403400  0.791400  1.0  0.1245
  H  H254  1  0.641400  0.455900  0.871100  1.0  0.119
  H  H255  1  0.575200  0.387900  0.849300  1.0  0.1258
  H  H256  1  0.455000  0.548500  0.757700  1.0  0.1174
  H  H257  1  0.417900  0.539300  0.801800  1.0  0.1293
  H  H258  1  0.488600  0.608500  0.835100  1.0  0.1282
  H  H259  1  0.673100  0.550700  0.744000  1.0  0.1256
  H  H260  1  0.662100  0.554300  0.807800  1.0  0.1139
  H  H261  1  0.668600  0.491600  0.763600  1.0  0.1187
  H  H262  1  0.363800  0.412600  0.621000  1.0  0.1334
  H  H263  1  0.366700  0.346900  0.622800  1.0  0.1335
  H  H264  1  0.386100  0.410800  0.691500  1.0  0.1221
  H  H265  1  0.915600  0.707000  0.819000  1.0  0.1256
  H  H266  1  0.858600  0.729700  0.814500  1.0  0.1172
  H  H267  1  0.924800  0.774100  0.812700  1.0  0.1245
  H  H268  1  0.045000  0.802700  0.093500  1.0  0.114
  H  H269  1  0.082100  0.883900  0.121400  1.0  0.1281
  H  H270  1  0.011400  0.846500  0.119900  1.0  0.1283
  H  H271  1  0.826900  0.570900  0.877600  1.0  0.1269
  H  H272  1  0.837900  0.645700  0.892200  1.0  0.1135
  H  H273  1  0.831400  0.595000  0.823000  1.0  0.1144
  H  H274  1  0.136200  0.757200  0.048800  1.0  0.1348
  H  H275  1  0.133300  0.756100  0.980200  1.0  0.1292
  H  H276  1  0.113900  0.805400  0.024700  1.0  0.1212
  H  H277  1  0.112000  0.793000  0.708600  1.0  0.128
  H  H278  1  0.084800  0.770300  0.628900  1.0  0.1192
  H  H279  1  0.038600  0.725900  0.650700  1.0  0.1267
  H  H280  1  0.290800  0.697300  0.742300  1.0  0.1139
  H  H281  1  0.237500  0.616100  0.698200  1.0  0.1285
  H  H282  1  0.273400  0.653500  0.664900  1.0  0.1289
  H  H283  1  0.306700  0.929100  0.756000  1.0  0.1286
  H  H284  1  0.246500  0.854300  0.692200  1.0  0.1134
  H  H285  1  0.228000  0.905000  0.736400  1.0  0.12
  H  H286  1  0.291600  0.742800  0.879000  1.0  0.1352
  H  H287  1  0.224100  0.743900  0.877200  1.0  0.1291
  H  H288  1  0.219300  0.694600  0.808500  1.0  0.1188
  H  H289  1  0.707000  0.319000  0.415600  1.0  0.127
  H  H290  1  0.729700  0.314500  0.358600  1.0  0.1202
  H  H291  1  0.774100  0.312700  0.424800  1.0  0.1248
  H  H292  1  0.802700  0.593500  0.545000  1.0  0.1119
  H  H293  1  0.883900  0.621400  0.582100  1.0  0.1264
  H  H294  1  0.846500  0.619900  0.511400  1.0  0.1283
  H  H295  1  0.570900  0.377600  0.326900  1.0  0.1284
  H  H296  1  0.645700  0.392200  0.337900  1.0  0.1127
  H  H297  1  0.595000  0.323000  0.331400  1.0  0.118
  H  H298  1  0.757200  0.548800  0.636200  1.0  0.1359
  H  H299  1  0.756100  0.480200  0.633300  1.0  0.129
  H  H300  1  0.805400  0.524700  0.613900  1.0  0.1188
  H  H301  1  0.793000  0.208600  0.612000  1.0  0.1246
  H  H302  1  0.770300  0.128900  0.584800  1.0  0.1194
  H  H303  1  0.725900  0.150700  0.538600  1.0  0.1222
  H  H304  1  0.697300  0.242300  0.790800  1.0  0.1162
  H  H305  1  0.616100  0.198200  0.737500  1.0  0.1314
  H  H306  1  0.653500  0.164900  0.773400  1.0  0.1289
  H  H307  1  0.929100  0.256000  0.806700  1.0  0.1259
  H  H308  1  0.854300  0.192200  0.746500  1.0  0.1143
  H  H309  1  0.905000  0.236400  0.728000  1.0  0.1161
  H  H310  1  0.742800  0.379000  0.791600  1.0  0.1344
  H  H311  1  0.743900  0.377200  0.724100  1.0  0.1292
  H  H312  1  0.694600  0.308500  0.719300  1.0  0.1246
  H  H313  1  0.096600  0.181000  0.888000  1.0  0.1254
  H  H314  1  0.044100  0.185500  0.915200  1.0  0.1168
  H  H315  1  0.112100  0.187300  0.961400  1.0  0.125
  H  H316  1  0.951500  0.906500  0.709200  1.0  0.1144
  H  H317  1  0.960700  0.878600  0.762500  1.0  0.1285
  H  H318  1  0.891500  0.880100  0.726600  1.0  0.128
  H  H319  1  0.949300  0.122400  0.693300  1.0  0.1255
  H  H320  1  0.945700  0.107800  0.753500  1.0  0.1132
  H  H321  1  0.008400  0.177000  0.772000  1.0  0.1195
  H  H322  1  0.087400  0.951200  0.708400  1.0  0.1355
  H  H323  1  0.153100  0.019800  0.775900  1.0  0.1313
  H  H324  1  0.089200  0.975300  0.780700  1.0  0.1234
  H  H325  1  0.403400  0.291400  0.084400  1.0  0.1213
  H  H326  1  0.455900  0.371100  0.141400  1.0  0.1181
  H  H327  1  0.387900  0.349300  0.075200  1.0  0.1264
  H  H328  1  0.548500  0.257700  0.955000  1.0  0.1157
  H  H329  1  0.539300  0.301800  0.917900  1.0  0.1252
  H  H330  1  0.608500  0.335100  0.988600  1.0  0.1299
  H  H331  1  0.550700  0.244000  0.173100  1.0  0.1266
  H  H332  1  0.554300  0.307800  0.162100  1.0  0.1146
  H  H333  1  0.491600  0.263600  0.168600  1.0  0.1172
  H  H334  1  0.412600  0.121000  0.863800  1.0  0.1358
  H  H335  1  0.346900  0.122800  0.866700  1.0  0.1314
  H  H336  1  0.410800  0.191500  0.886100  1.0  0.1201
  C  C337  1  0.914200  0.667800  0.075800  1.0  -0.416
  C  C338  1  0.880200  0.590200  0.036600  1.0  0.1658
  C  C339  1  0.811500  0.539600  0.012900  1.0  -0.1091
  C  C340  1  0.806400  0.479100  0.974900  1.0  0.2023
  C  C341  1  0.745400  0.403900  0.941500  1.0  -0.4113
  C  C342  1  0.738100  0.627800  0.976500  1.0  -0.3981
  C  C343  1  0.731300  0.591400  0.017300  1.0  0.1967
  C  C344  1  0.759800  0.552500  0.031300  1.0  -0.0999
  C  C345  1  0.736900  0.532300  0.070800  1.0  0.2296
  C  C346  1  0.751700  0.491100  0.102800  1.0  -0.416
  C  C347  1  0.092000  0.838400  0.424200  1.0  -0.4168
  C  C348  1  0.053600  0.843600  0.463400  1.0  0.1672
  C  C349  1  0.026700  0.798600  0.487100  1.0  -0.1084
  C  C350  1  0.004200  0.831500  0.525100  1.0  0.203
  C  C351  1  0.962400  0.803900  0.558500  1.0  -0.4123
  C  C352  1  0.151300  0.761600  0.523500  1.0  -0.4001
  C  C353  1  0.074100  0.714000  0.482700  1.0  0.1955
  C  C354  1  0.021200  0.728500  0.468700  1.0  -0.0972
  C  C355  1  0.961500  0.666100  0.429200  1.0  0.2281
  C  C356  1  0.888300  0.648900  0.397200  1.0  -0.4153
  C  C357  1  0.408000  0.832200  0.746400  1.0  -0.4191
  C  C358  1  0.446400  0.909800  0.790000  1.0  0.1693
  C  C359  1  0.473300  0.960400  0.771900  1.0  -0.1079
  C  C360  1  0.495800  0.020900  0.827300  1.0  0.2028
  C  C361  1  0.537600  0.096100  0.841500  1.0  -0.4117
  C  C362  1  0.348700  0.872200  0.610300  1.0  -0.4021
  C  C363  1  0.425900  0.908600  0.639900  1.0  0.1951
  C  C364  1  0.478800  0.947500  0.707300  1.0  -0.1019
  C  C365  1  0.538500  0.967700  0.704600  1.0  0.2326
  C  C366  1  0.611700  0.008900  0.760600  1.0  -0.4179
  C  C367  1  0.585800  0.661600  0.753600  1.0  -0.4177
  C  C368  1  0.619800  0.656400  0.710000  1.0  0.1712
  C  C369  1  0.688500  0.701400  0.728100  1.0  -0.109
  C  C370  1  0.693600  0.668500  0.672700  1.0  0.2021
  C  C371  1  0.754600  0.696100  0.658500  1.0  -0.4116
  C  C372  1  0.761900  0.738400  0.889700  1.0  -0.4004
  C  C373  1  0.768700  0.786000  0.860100  1.0  0.1946
  C  C374  1  0.740200  0.771500  0.792700  1.0  -0.0994
  C  C375  1  0.763100  0.833900  0.795400  1.0  0.2327
  C  C376  1  0.748300  0.851100  0.739400  1.0  -0.4153
  C  C377  1  0.246400  0.408000  0.332200  1.0  -0.416
  C  C378  1  0.290000  0.446400  0.409800  1.0  0.1663
  C  C379  1  0.271900  0.473300  0.460400  1.0  -0.1102
  C  C380  1  0.327300  0.495800  0.520900  1.0  0.201
  C  C381  1  0.341500  0.537600  0.596100  1.0  -0.4124
  C  C382  1  0.110300  0.348700  0.372200  1.0  -0.4028
  C  C383  1  0.139900  0.425900  0.408600  1.0  0.1964
  C  C384  1  0.207300  0.478800  0.447500  1.0  -0.0991
  C  C385  1  0.204600  0.538500  0.467700  1.0  0.2305
  C  C386  1  0.260600  0.611700  0.508900  1.0  -0.4174
  C  C387  1  0.253600  0.585800  0.161600  1.0  -0.4164
  C  C388  1  0.210000  0.619800  0.156400  1.0  0.1646
  C  C389  1  0.228100  0.688500  0.201400  1.0  -0.1112
  C  C390  1  0.172700  0.693600  0.168500  1.0  0.2013
  C  C391  1  0.158500  0.754600  0.196100  1.0  -0.4109
  C  C392  1  0.389700  0.761900  0.238400  1.0  -0.4004
  C  C393  1  0.360100  0.768700  0.286000  1.0  0.1975
  C  C394  1  0.292700  0.740200  0.271500  1.0  -0.1006
  C  C395  1  0.295400  0.763100  0.333900  1.0  0.2274
  C  C396  1  0.239400  0.748300  0.351100  1.0  -0.4143
  C  C397  1  0.575800  0.914200  0.167800  1.0  -0.4171
  C  C398  1  0.536600  0.880200  0.090200  1.0  0.1712
  C  C399  1  0.512900  0.811500  0.039600  1.0  -0.1091
  C  C400  1  0.474900  0.806400  0.979100  1.0  0.2023
  C  C401  1  0.441500  0.745400  0.903900  1.0  -0.4104
  C  C402  1  0.476500  0.738100  0.127800  1.0  -0.4009
  C  C403  1  0.517300  0.731300  0.091400  1.0  0.1964
  C  C404  1  0.531300  0.759800  0.052500  1.0  -0.1004
  C  C405  1  0.570800  0.736900  0.032300  1.0  0.2303
  C  C406  1  0.602800  0.751700  0.991100  1.0  -0.4157
  C  C407  1  0.924200  0.092000  0.338400  1.0  -0.4173
  C  C408  1  0.963400  0.053600  0.343600  1.0  0.1672
  C  C409  1  0.987100  0.026700  0.298600  1.0  -0.1081
  C  C410  1  0.025100  0.004200  0.331500  1.0  0.2033
  C  C411  1  0.058500  0.962400  0.303900  1.0  -0.4126
  C  C412  1  0.023500  0.151300  0.261600  1.0  -0.4018
  C  C413  1  0.982700  0.074100  0.214000  1.0  0.1975
  C  C414  1  0.968700  0.021200  0.228500  1.0  -0.1006
  C  C415  1  0.929200  0.961500  0.166100  1.0  0.2311
  C  C416  1  0.897200  0.888300  0.148900  1.0  -0.4149
  C  C417  1  0.838400  0.924200  0.592000  1.0  -0.4159
  C  C418  1  0.843600  0.963400  0.553600  1.0  0.1695
  C  C419  1  0.798600  0.987100  0.526700  1.0  -0.1101
  C  C420  1  0.831500  0.025100  0.504200  1.0  0.201
  C  C421  1  0.803900  0.058500  0.462400  1.0  -0.4109
  C  C422  1  0.761600  0.023500  0.651300  1.0  -0.4008
  C  C423  1  0.714000  0.982700  0.574100  1.0  0.1958
  C  C424  1  0.728500  0.968700  0.521200  1.0  -0.101
  C  C425  1  0.666100  0.929200  0.461500  1.0  0.232
  C  C426  1  0.648900  0.897200  0.388300  1.0  -0.4155
  C  C427  1  0.667800  0.575800  0.414200  1.0  -0.4169
  C  C428  1  0.590200  0.536600  0.380200  1.0  0.1663
  C  C429  1  0.539600  0.512900  0.311500  1.0  -0.1085
  C  C430  1  0.479100  0.474900  0.306400  1.0  0.2017
  C  C431  1  0.403900  0.441500  0.245400  1.0  -0.4115
  C  C432  1  0.627800  0.476500  0.238100  1.0  -0.4019
  C  C433  1  0.591400  0.517300  0.231300  1.0  0.197
  C  C434  1  0.552500  0.531300  0.259800  1.0  -0.1004
  C  C435  1  0.532300  0.570800  0.236900  1.0  0.2302
  C  C436  1  0.491100  0.602800  0.251700  1.0  -0.4152
  C  C437  1  0.661600  0.253600  0.085800  1.0  -0.417
  C  C438  1  0.656400  0.210000  0.119800  1.0  0.1663
  C  C439  1  0.701400  0.228100  0.188500  1.0  -0.1077
  C  C440  1  0.668500  0.172700  0.193600  1.0  0.1996
  C  C441  1  0.696100  0.158500  0.254600  1.0  -0.4131
  C  C442  1  0.738400  0.389700  0.261900  1.0  -0.4014
  C  C443  1  0.786000  0.360100  0.268700  1.0  0.1947
  C  C444  1  0.771500  0.292700  0.240200  1.0  -0.0989
  C  C445  1  0.833900  0.295400  0.263100  1.0  0.2288
  C  C446  1  0.851100  0.239400  0.248300  1.0  -0.4176
  C  C447  1  0.832200  0.246400  0.908000  1.0  -0.4158
  C  C448  1  0.909800  0.290000  0.946400  1.0  0.1652
  C  C449  1  0.960400  0.271900  0.973300  1.0  -0.1083
  C  C450  1  0.020900  0.327300  0.995800  1.0  0.1998
  C  C451  1  0.096100  0.341500  0.037600  1.0  -0.4114
  C  C452  1  0.872200  0.110300  0.848700  1.0  -0.399
  C  C453  1  0.908600  0.139900  0.925900  1.0  0.1961
  C  C454  1  0.947500  0.207300  0.978800  1.0  -0.0992
  C  C455  1  0.967700  0.204600  0.038500  1.0  0.2298
  C  C456  1  0.008900  0.260600  0.111700  1.0  -0.4134
  C  C457  1  0.338400  0.592000  0.924200  1.0  -0.4167
  C  C458  1  0.343600  0.553600  0.963400  1.0  0.1645
  C  C459  1  0.298600  0.526700  0.987100  1.0  -0.1111
  C  C460  1  0.331500  0.504200  0.025100  1.0  0.2008
  C  C461  1  0.303900  0.462400  0.058500  1.0  -0.4126
  C  C462  1  0.261600  0.651300  0.023500  1.0  -0.4006
  C  C463  1  0.214000  0.574100  0.982700  1.0  0.1966
  C  C464  1  0.228500  0.521200  0.968700  1.0  -0.0995
  C  C465  1  0.166100  0.461500  0.929200  1.0  0.2298
  C  C466  1  0.148900  0.388300  0.897200  1.0  -0.4191
  C  C467  1  0.167800  0.414200  0.575800  1.0  -0.4164
  C  C468  1  0.090200  0.380200  0.536600  1.0  0.1646
  C  C469  1  0.039600  0.311500  0.512900  1.0  -0.1104
  C  C470  1  0.979100  0.306400  0.474900  1.0  0.2018
  C  C471  1  0.903900  0.245400  0.441500  1.0  -0.4109
  C  C472  1  0.127800  0.238100  0.476500  1.0  -0.4008
  C  C473  1  0.091400  0.231300  0.517300  1.0  0.1972
  C  C474  1  0.052500  0.259800  0.531300  1.0  -0.1005
  C  C475  1  0.032300  0.236900  0.570800  1.0  0.2271
  C  C476  1  0.991100  0.251700  0.602800  1.0  -0.415
  C  C477  1  0.161600  0.085800  0.253600  1.0  -0.4167
  C  C478  1  0.156400  0.119800  0.210000  1.0  0.1693
  C  C479  1  0.201400  0.188500  0.228100  1.0  -0.1098
  C  C480  1  0.168500  0.193600  0.172700  1.0  0.2019
  C  C481  1  0.196100  0.254600  0.158500  1.0  -0.411
  C  C482  1  0.238400  0.261900  0.389700  1.0  -0.4007
  C  C483  1  0.286000  0.268700  0.360100  1.0  0.1968
  C  C484  1  0.271500  0.240200  0.292700  1.0  -0.1007
  C  C485  1  0.333900  0.263100  0.295400  1.0  0.2302
  C  C486  1  0.351100  0.248300  0.239400  1.0  -0.4157
  C  C487  1  0.332200  0.908000  0.246400  1.0  -0.4169
  C  C488  1  0.409800  0.946400  0.290000  1.0  0.1672
  C  C489  1  0.460400  0.973300  0.271900  1.0  -0.1076
  C  C490  1  0.520900  0.995800  0.327300  1.0  0.2029
  C  C491  1  0.596100  0.037600  0.341500  1.0  -0.4121
  C  C492  1  0.372200  0.848700  0.110300  1.0  -0.4036
  C  C493  1  0.408600  0.925900  0.139900  1.0  0.1975
  C  C494  1  0.447500  0.978800  0.207300  1.0  -0.1
  C  C495  1  0.467700  0.038500  0.204600  1.0  0.2313
  C  C496  1  0.508900  0.111700  0.260600  1.0  -0.4134
  C  C497  1  0.414200  0.075800  0.667800  1.0  -0.4159
  C  C498  1  0.380200  0.036600  0.590200  1.0  0.1701
  C  C499  1  0.311500  0.012900  0.539600  1.0  -0.1095
  C  C500  1  0.306400  0.974900  0.479100  1.0  0.201
  C  C501  1  0.245400  0.941500  0.403900  1.0  -0.41
  C  C502  1  0.238100  0.976500  0.627800  1.0  -0.4005
  C  C503  1  0.231300  0.017300  0.591400  1.0  0.1959
  C  C504  1  0.259800  0.031300  0.552500  1.0  -0.1005
  C  C505  1  0.236900  0.070800  0.532300  1.0  0.2311
  C  C506  1  0.251700  0.102800  0.491100  1.0  -0.4145
  C  C507  1  0.592000  0.424200  0.838400  1.0  -0.4186
  C  C508  1  0.553600  0.463400  0.843600  1.0  0.1686
  C  C509  1  0.526700  0.487100  0.798600  1.0  -0.1088
  C  C510  1  0.504200  0.525100  0.831500  1.0  0.202
  C  C511  1  0.462400  0.558500  0.803900  1.0  -0.4119
  C  C512  1  0.651300  0.523500  0.761600  1.0  -0.4028
  C  C513  1  0.574100  0.482700  0.714000  1.0  0.1959
  C  C514  1  0.521200  0.468700  0.728500  1.0  -0.1018
  C  C515  1  0.461500  0.429200  0.666100  1.0  0.2309
  C  C516  1  0.388300  0.397200  0.648900  1.0  -0.4148
  C  C517  1  0.908000  0.746400  0.832200  1.0  -0.4167
  C  C518  1  0.946400  0.790000  0.909800  1.0  0.1666
  C  C519  1  0.973300  0.771900  0.960400  1.0  -0.1077
  C  C520  1  0.995800  0.827300  0.020900  1.0  0.2008
  C  C521  1  0.037600  0.841500  0.096100  1.0  -0.4129
  C  C522  1  0.848700  0.610300  0.872200  1.0  -0.4009
  C  C523  1  0.925900  0.639900  0.908600  1.0  0.1939
  C  C524  1  0.978800  0.707300  0.947500  1.0  -0.0989
  C  C525  1  0.038500  0.704600  0.967700  1.0  0.2296
  C  C526  1  0.111700  0.760600  0.008900  1.0  -0.4177
  C  C527  1  0.085800  0.753600  0.661600  1.0  -0.4155
  C  C528  1  0.119800  0.710000  0.656400  1.0  0.1668
  C  C529  1  0.188500  0.728100  0.701400  1.0  -0.1085
  C  C530  1  0.193600  0.672700  0.668500  1.0  0.199
  C  C531  1  0.254600  0.658500  0.696100  1.0  -0.4114
  C  C532  1  0.261900  0.889700  0.738400  1.0  -0.3992
  C  C533  1  0.268700  0.860100  0.786000  1.0  0.1962
  C  C534  1  0.240200  0.792700  0.771500  1.0  -0.0988
  C  C535  1  0.263100  0.795400  0.833900  1.0  0.2289
  C  C536  1  0.248300  0.739400  0.851100  1.0  -0.4146
  C  C537  1  0.746400  0.332200  0.408000  1.0  -0.417
  C  C538  1  0.790000  0.409800  0.446400  1.0  0.1653
  C  C539  1  0.771900  0.460400  0.473300  1.0  -0.1088
  C  C540  1  0.827300  0.520900  0.495800  1.0  0.2023
  C  C541  1  0.841500  0.596100  0.537600  1.0  -0.4115
  C  C542  1  0.610300  0.372200  0.348700  1.0  -0.3984
  C  C543  1  0.639900  0.408600  0.425900  1.0  0.1965
  C  C544  1  0.707300  0.447500  0.478800  1.0  -0.1003
  C  C545  1  0.704600  0.467700  0.538500  1.0  0.2305
  C  C546  1  0.760600  0.508900  0.611700  1.0  -0.4158
  C  C547  1  0.753600  0.161600  0.585800  1.0  -0.4165
  C  C548  1  0.710000  0.156400  0.619800  1.0  0.1672
  C  C549  1  0.728100  0.201400  0.688500  1.0  -0.1086
  C  C550  1  0.672700  0.168500  0.693600  1.0  0.2028
  C  C551  1  0.658500  0.196100  0.754600  1.0  -0.412
  C  C552  1  0.889700  0.238400  0.761900  1.0  -0.3996
  C  C553  1  0.860100  0.286000  0.768700  1.0  0.196
  C  C554  1  0.792700  0.271500  0.740200  1.0  -0.0973
  C  C555  1  0.795400  0.333900  0.763100  1.0  0.2284
  C  C556  1  0.739400  0.351100  0.748300  1.0  -0.4154
  C  C557  1  0.075800  0.167800  0.914200  1.0  -0.4179
  C  C558  1  0.036600  0.090200  0.880200  1.0  0.1696
  C  C559  1  0.012900  0.039600  0.811500  1.0  -0.108
  C  C560  1  0.974900  0.979100  0.806400  1.0  0.2023
  C  C561  1  0.941500  0.903900  0.745400  1.0  -0.4123
  C  C562  1  0.976500  0.127800  0.738100  1.0  -0.4019
  C  C563  1  0.017300  0.091400  0.731300  1.0  0.196
  C  C564  1  0.031300  0.052500  0.759800  1.0  -0.101
  C  C565  1  0.070800  0.032300  0.736900  1.0  0.2322
  C  C566  1  0.102800  0.991100  0.751700  1.0  -0.4181
  C  C567  1  0.424200  0.338400  0.092000  1.0  -0.4178
  C  C568  1  0.463400  0.343600  0.053600  1.0  0.1716
  C  C569  1  0.487100  0.298600  0.026700  1.0  -0.1089
  C  C570  1  0.525100  0.331500  0.004200  1.0  0.2022
  C  C571  1  0.558500  0.303900  0.962400  1.0  -0.4113
  C  C572  1  0.523500  0.261600  0.151300  1.0  -0.4005
  C  C573  1  0.482700  0.214000  0.074100  1.0  0.1945
  C  C574  1  0.468700  0.228500  0.021200  1.0  -0.0992
  C  C575  1  0.429200  0.166100  0.961500  1.0  0.2321
  C  C576  1  0.397200  0.148900  0.888300  1.0  -0.4155
  N  N577  1  0.911600  0.557500  0.011900  1.0  -0.193
  N  N578  1  0.865900  0.486500  0.974800  1.0  -0.3207
  N  N579  1  0.694100  0.596400  0.050100  1.0  -0.2758
  N  N580  1  0.697600  0.557900  0.082900  1.0  -0.2436
  N  N581  1  0.045600  0.899700  0.488100  1.0  -0.1928
  N  N582  1  0.011700  0.891100  0.525200  1.0  -0.3193
  N  N583  1  0.046300  0.644000  0.449900  1.0  -0.2701
  N  N584  1  0.975000  0.614700  0.417100  1.0  -0.2381
  N  N585  1  0.454400  0.942500  0.854100  1.0  -0.1914
  N  N586  1  0.488300  0.013500  0.879400  1.0  -0.3182
  N  N587  1  0.453700  0.903600  0.597700  1.0  -0.2752
  N  N588  1  0.525000  0.942100  0.639700  1.0  -0.2542
  N  N589  1  0.588400  0.600300  0.645900  1.0  -0.1917
  N  N590  1  0.634100  0.608900  0.620600  1.0  -0.3189
  N  N591  1  0.805900  0.856000  0.902300  1.0  -0.2734
  N  N592  1  0.802400  0.885300  0.860300  1.0  -0.2406
  N  N593  1  0.354100  0.454400  0.442500  1.0  -0.195
  N  N594  1  0.379400  0.488300  0.513500  1.0  -0.3205
  N  N595  1  0.097700  0.453700  0.403600  1.0  -0.2717
  N  N596  1  0.139700  0.525000  0.442100  1.0  -0.2479
  N  N597  1  0.145900  0.588400  0.100300  1.0  -0.1889
  N  N598  1  0.120600  0.634100  0.108900  1.0  -0.32
  N  N599  1  0.402300  0.805900  0.356000  1.0  -0.2731
  N  N600  1  0.360300  0.802400  0.385300  1.0  -0.2452
  N  N601  1  0.511900  0.911600  0.057500  1.0  -0.1894
  N  N602  1  0.474800  0.865900  0.986500  1.0  -0.3194
  N  N603  1  0.550100  0.694100  0.096400  1.0  -0.2731
  N  N604  1  0.582900  0.697600  0.057900  1.0  -0.2412
  N  N605  1  0.988100  0.045600  0.399700  1.0  -0.194
  N  N606  1  0.025200  0.011700  0.391100  1.0  -0.3157
  N  N607  1  0.949900  0.046300  0.144000  1.0  -0.2729
  N  N608  1  0.917100  0.975000  0.114700  1.0  -0.2449
  N  N609  1  0.899700  0.988100  0.545600  1.0  -0.1918
  N  N610  1  0.891100  0.025200  0.511700  1.0  -0.3201
  N  N611  1  0.644000  0.949900  0.546300  1.0  -0.2754
  N  N612  1  0.614700  0.917100  0.475000  1.0  -0.2408
  N  N613  1  0.557500  0.511900  0.411600  1.0  -0.1925
  N  N614  1  0.486500  0.474800  0.365900  1.0  -0.3167
  N  N615  1  0.596400  0.550100  0.194100  1.0  -0.2753
  N  N616  1  0.557900  0.582900  0.197600  1.0  -0.242
  N  N617  1  0.600300  0.145900  0.088400  1.0  -0.1905
  N  N618  1  0.608900  0.120600  0.134100  1.0  -0.3213
  N  N619  1  0.856000  0.402300  0.305900  1.0  -0.2739
  N  N620  1  0.885300  0.360300  0.302400  1.0  -0.2406
  N  N621  1  0.942500  0.354100  0.954400  1.0  -0.1919
  N  N622  1  0.013500  0.379400  0.988300  1.0  -0.3183
  N  N623  1  0.903600  0.097700  0.953700  1.0  -0.2721
  N  N624  1  0.942100  0.139700  0.025000  1.0  -0.2517
  N  N625  1  0.399700  0.545600  0.988100  1.0  -0.1937
  N  N626  1  0.391100  0.511700  0.025200  1.0  -0.3207
  N  N627  1  0.144000  0.546300  0.949900  1.0  -0.2695
  N  N628  1  0.114700  0.475000  0.917100  1.0  -0.2388
  N  N629  1  0.057500  0.411600  0.511900  1.0  -0.1903
  N  N630  1  0.986500  0.365900  0.474800  1.0  -0.3207
  N  N631  1  0.096400  0.194100  0.550100  1.0  -0.2718
  N  N632  1  0.057900  0.197600  0.582900  1.0  -0.2441
  N  N633  1  0.100300  0.088400  0.145900  1.0  -0.1889
  N  N634  1  0.108900  0.134100  0.120600  1.0  -0.3193
  N  N635  1  0.356000  0.305900  0.402300  1.0  -0.274
  N  N636  1  0.385300  0.302400  0.360300  1.0  -0.2417
  N  N637  1  0.442500  0.954400  0.354100  1.0  -0.194
  N  N638  1  0.513500  0.988300  0.379400  1.0  -0.317
  N  N639  1  0.403600  0.953700  0.097700  1.0  -0.2747
  N  N640  1  0.442100  0.025000  0.139700  1.0  -0.2524
  N  N641  1  0.411600  0.011900  0.557500  1.0  -0.1918
  N  N642  1  0.365900  0.974800  0.486500  1.0  -0.3202
  N  N643  1  0.194100  0.050100  0.596400  1.0  -0.2751
  N  N644  1  0.197600  0.082900  0.557900  1.0  -0.2421
  N  N645  1  0.545600  0.488100  0.899700  1.0  -0.1913
  N  N646  1  0.511700  0.525200  0.891100  1.0  -0.3176
  N  N647  1  0.546300  0.449900  0.644000  1.0  -0.2728
  N  N648  1  0.475000  0.417100  0.614700  1.0  -0.2417
  N  N649  1  0.954400  0.854100  0.942500  1.0  -0.1911
  N  N650  1  0.988300  0.879400  0.013500  1.0  -0.3188
  N  N651  1  0.953700  0.597700  0.903600  1.0  -0.2731
  N  N652  1  0.025000  0.639700  0.942100  1.0  -0.2517
  N  N653  1  0.088400  0.645900  0.600300  1.0  -0.1906
  N  N654  1  0.134100  0.620600  0.608900  1.0  -0.3196
  N  N655  1  0.305900  0.902300  0.856000  1.0  -0.2742
  N  N656  1  0.302400  0.860300  0.885300  1.0  -0.243
  N  N657  1  0.854100  0.442500  0.454400  1.0  -0.1926
  N  N658  1  0.879400  0.513500  0.488300  1.0  -0.3206
  N  N659  1  0.597700  0.403600  0.453700  1.0  -0.2749
  N  N660  1  0.639700  0.442100  0.525000  1.0  -0.2528
  N  N661  1  0.645900  0.100300  0.588400  1.0  -0.1928
  N  N662  1  0.620600  0.108900  0.634100  1.0  -0.3203
  N  N663  1  0.902300  0.356000  0.805900  1.0  -0.2704
  N  N664  1  0.860300  0.385300  0.802400  1.0  -0.2386
  N  N665  1  0.011900  0.057500  0.911600  1.0  -0.1914
  N  N666  1  0.974800  0.986500  0.865900  1.0  -0.3181
  N  N667  1  0.050100  0.096400  0.694100  1.0  -0.276
  N  N668  1  0.082900  0.057900  0.697600  1.0  -0.2437
  N  N669  1  0.488100  0.399700  0.045600  1.0  -0.1917
  N  N670  1  0.525200  0.391100  0.011700  1.0  -0.3185
  N  N671  1  0.449900  0.144000  0.046300  1.0  -0.2724
  N  N672  1  0.417100  0.114700  0.975000  1.0  -0.2391
