# generated using pymatgen
data_Zr3H62(C9O2)8
_symmetry_space_group_name_H-M   'P 1'
_cell_length_a   23.09200000
_cell_length_b   23.09200000
_cell_length_c   23.09200000
_cell_angle_alpha   60.00000000
_cell_angle_beta   60.00000000
_cell_angle_gamma   60.00000000
_symmetry_Int_Tables_number   1
_chemical_formula_structural   Zr3H62(C9O2)8
_chemical_formula_sum   'Zr6 H124 C144 O32'
_cell_volume   8707.02213747
_cell_formula_units_Z   2
loop_
 _symmetry_equiv_pos_site_id
 _symmetry_equiv_pos_as_xyz
  1  'x, y, z'
loop_
 _atom_site_type_symbol
 _atom_site_label
 _atom_site_symmetry_multiplicity
 _atom_site_fract_x
 _atom_site_fract_y
 _atom_site_fract_z
 _atom_site_occupancy
 _atom_site_charge
  Zr  Zr1  1  0.424650  0.575350  0.575350  1.0  1.822
  Zr  Zr2  1  0.575350  0.424650  0.424650  1.0  1.8197
  Zr  Zr3  1  0.575350  0.424650  0.575350  1.0  1.8228
  Zr  Zr4  1  0.424650  0.575350  0.424650  1.0  1.8191
  Zr  Zr5  1  0.575350  0.575350  0.424650  1.0  1.8161
  Zr  Zr6  1  0.424650  0.424650  0.575350  1.0  1.8223
  H  H7  1  0.626500  0.852700  0.559900  1.0  0.1326
  H  H8  1  0.440100  0.147300  0.373500  1.0  0.1322
  H  H9  1  0.412300  0.764700  0.587700  1.0  0.1195
  H  H10  1  0.412200  0.867000  0.587800  1.0  0.1363
  H  H11  1  0.852700  0.626500  0.960900  1.0  0.1311
  H  H12  1  0.147300  0.440100  0.039100  1.0  0.1327
  H  H13  1  0.764700  0.412300  0.235300  1.0  0.1211
  H  H14  1  0.867000  0.412200  0.133000  1.0  0.1353
  H  H15  1  0.559900  0.960900  0.626500  1.0  0.1319
  H  H16  1  0.373500  0.039100  0.440100  1.0  0.1298
  H  H17  1  0.587700  0.235300  0.412300  1.0  0.1198
  H  H18  1  0.587800  0.133000  0.412200  1.0  0.1356
  H  H19  1  0.960900  0.559900  0.852700  1.0  0.1309
  H  H20  1  0.039100  0.373500  0.147300  1.0  0.1305
  H  H21  1  0.235300  0.587700  0.764700  1.0  0.1209
  H  H22  1  0.133000  0.587800  0.867000  1.0  0.1356
  H  H23  1  0.559900  0.626500  0.852700  1.0  0.1312
  H  H24  1  0.373500  0.440100  0.147300  1.0  0.1317
  H  H25  1  0.587700  0.412300  0.764700  1.0  0.12
  H  H26  1  0.587800  0.412200  0.867000  1.0  0.1348
  H  H27  1  0.960900  0.852700  0.626500  1.0  0.1316
  H  H28  1  0.039100  0.147300  0.440100  1.0  0.1309
  H  H29  1  0.235300  0.764700  0.412300  1.0  0.1199
  H  H30  1  0.133000  0.867000  0.412200  1.0  0.1368
  H  H31  1  0.626500  0.559900  0.960900  1.0  0.1345
  H  H32  1  0.440100  0.373500  0.039100  1.0  0.13
  H  H33  1  0.412300  0.587700  0.235300  1.0  0.1203
  H  H34  1  0.412200  0.587800  0.133000  1.0  0.1365
  H  H35  1  0.852700  0.960900  0.559900  1.0  0.1319
  H  H36  1  0.147300  0.039100  0.373500  1.0  0.1319
  H  H37  1  0.764700  0.235300  0.587700  1.0  0.1189
  H  H38  1  0.867000  0.133000  0.587800  1.0  0.1353
  H  H39  1  0.852700  0.559900  0.626500  1.0  0.1344
  H  H40  1  0.147300  0.373500  0.440100  1.0  0.1316
  H  H41  1  0.764700  0.587700  0.412300  1.0  0.1204
  H  H42  1  0.867000  0.587800  0.412200  1.0  0.1347
  H  H43  1  0.626500  0.960900  0.852700  1.0  0.1346
  H  H44  1  0.440100  0.039100  0.147300  1.0  0.1317
  H  H45  1  0.412300  0.235300  0.764700  1.0  0.1198
  H  H46  1  0.412200  0.133000  0.867000  1.0  0.1353
  H  H47  1  0.960900  0.626500  0.559900  1.0  0.1304
  H  H48  1  0.039100  0.440100  0.373500  1.0  0.1317
  H  H49  1  0.235300  0.412300  0.587700  1.0  0.1203
  H  H50  1  0.133000  0.412200  0.587800  1.0  0.1355
  H  H51  1  0.559900  0.852700  0.960900  1.0  0.1319
  H  H52  1  0.373500  0.147300  0.039100  1.0  0.1296
  H  H53  1  0.587700  0.764700  0.235300  1.0  0.1204
  H  H54  1  0.587800  0.867000  0.133000  1.0  0.1338
  H  H55  1  0.852700  0.626500  0.559900  1.0  0.131
  H  H56  1  0.147300  0.440100  0.373500  1.0  0.1335
  H  H57  1  0.764700  0.412300  0.587700  1.0  0.1214
  H  H58  1  0.867000  0.412200  0.587800  1.0  0.1355
  H  H59  1  0.626500  0.852700  0.960900  1.0  0.1341
  H  H60  1  0.440100  0.147300  0.039100  1.0  0.1329
  H  H61  1  0.412300  0.764700  0.235300  1.0  0.1192
  H  H62  1  0.412200  0.867000  0.133000  1.0  0.1363
  H  H63  1  0.960900  0.559900  0.626500  1.0  0.1326
  H  H64  1  0.039100  0.373500  0.440100  1.0  0.1311
  H  H65  1  0.235300  0.587700  0.412300  1.0  0.1211
  H  H66  1  0.133000  0.587800  0.412200  1.0  0.1357
  H  H67  1  0.559900  0.960900  0.852700  1.0  0.1304
  H  H68  1  0.373500  0.039100  0.147300  1.0  0.1298
  H  H69  1  0.587700  0.235300  0.764700  1.0  0.1195
  H  H70  1  0.587800  0.133000  0.867000  1.0  0.1351
  H  H71  1  0.626500  0.559900  0.852700  1.0  0.1347
  H  H72  1  0.440100  0.373500  0.147300  1.0  0.1299
  H  H73  1  0.412300  0.587700  0.764700  1.0  0.1201
  H  H74  1  0.412200  0.587800  0.867000  1.0  0.1355
  H  H75  1  0.852700  0.960900  0.626500  1.0  0.1324
  H  H76  1  0.147300  0.039100  0.440100  1.0  0.1311
  H  H77  1  0.764700  0.235300  0.412300  1.0  0.1199
  H  H78  1  0.867000  0.133000  0.412200  1.0  0.1366
  H  H79  1  0.559900  0.626500  0.960900  1.0  0.131
  H  H80  1  0.373500  0.440100  0.039100  1.0  0.1313
  H  H81  1  0.587700  0.412300  0.235300  1.0  0.1202
  H  H82  1  0.587800  0.412200  0.133000  1.0  0.1355
  H  H83  1  0.960900  0.852700  0.559900  1.0  0.1311
  H  H84  1  0.039100  0.147300  0.373500  1.0  0.132
  H  H85  1  0.235300  0.764700  0.587700  1.0  0.1198
  H  H86  1  0.133000  0.867000  0.587800  1.0  0.1354
  H  H87  1  0.559900  0.852700  0.626500  1.0  0.1334
  H  H88  1  0.373500  0.147300  0.440100  1.0  0.1305
  H  H89  1  0.587700  0.764700  0.412300  1.0  0.1205
  H  H90  1  0.587800  0.867000  0.412200  1.0  0.1339
  H  H91  1  0.960900  0.626500  0.852700  1.0  0.1312
  H  H92  1  0.039100  0.440100  0.147300  1.0  0.1311
  H  H93  1  0.235300  0.412300  0.764700  1.0  0.12
  H  H94  1  0.133000  0.412200  0.867000  1.0  0.1349
  H  H95  1  0.626500  0.960900  0.559900  1.0  0.1332
  H  H96  1  0.440100  0.039100  0.373500  1.0  0.1311
  H  H97  1  0.412300  0.235300  0.587700  1.0  0.1199
  H  H98  1  0.412200  0.133000  0.587800  1.0  0.1359
  H  H99  1  0.852700  0.559900  0.960900  1.0  0.1325
  H  H100  1  0.147300  0.373500  0.039100  1.0  0.1314
  H  H101  1  0.764700  0.587700  0.235300  1.0  0.12
  H  H102  1  0.867000  0.587800  0.133000  1.0  0.1355
  H  H103  1  0.571900  0.824300  0.571900  1.0  0.1106
  H  H104  1  0.428100  0.175700  0.428100  1.0  0.112
  H  H105  1  0.824300  0.571900  0.031900  1.0  0.1087
  H  H106  1  0.175700  0.428100  0.968100  1.0  0.1131
  H  H107  1  0.571900  0.031900  0.571900  1.0  0.1097
  H  H108  1  0.428100  0.968100  0.428100  1.0  0.113
  H  H109  1  0.031900  0.571900  0.824300  1.0  0.1075
  H  H110  1  0.968100  0.428100  0.175700  1.0  0.1114
  H  H111  1  0.571900  0.571900  0.824300  1.0  0.111
  H  H112  1  0.428100  0.428100  0.175700  1.0  0.1123
  H  H113  1  0.031900  0.824300  0.571900  1.0  0.1091
  H  H114  1  0.968100  0.175700  0.428100  1.0  0.1142
  H  H115  1  0.571900  0.571900  0.031900  1.0  0.1093
  H  H116  1  0.428100  0.428100  0.968100  1.0  0.1119
  H  H117  1  0.824300  0.031900  0.571900  1.0  0.1116
  H  H118  1  0.175700  0.968100  0.428100  1.0  0.1151
  H  H119  1  0.824300  0.571900  0.571900  1.0  0.1115
  H  H120  1  0.175700  0.428100  0.428100  1.0  0.112
  H  H121  1  0.571900  0.031900  0.824300  1.0  0.1106
  H  H122  1  0.428100  0.968100  0.175700  1.0  0.1132
  H  H123  1  0.031900  0.571900  0.571900  1.0  0.1066
  H  H124  1  0.968100  0.428100  0.428100  1.0  0.1109
  H  H125  1  0.571900  0.824300  0.031900  1.0  0.1095
  H  H126  1  0.428100  0.175700  0.968100  1.0  0.1137
  H  H127  1  0.441190  0.441190  0.441190  1.0  0.0399
  H  H128  1  0.441190  0.441190  0.676440  1.0  0.0368
  H  H129  1  0.441190  0.676440  0.441190  1.0  0.0412
  H  H130  1  0.676440  0.441190  0.441190  1.0  0.0411
  C  C131  1  0.447890  0.785310  0.552110  1.0  -0.0322
  C  C132  1  0.447800  0.846200  0.552200  1.0  -0.1165
  C  C133  1  0.785310  0.447890  0.214690  1.0  -0.0334
  C  C134  1  0.846200  0.447800  0.153800  1.0  -0.1199
  C  C135  1  0.552110  0.214690  0.447890  1.0  -0.0312
  C  C136  1  0.552200  0.153800  0.447800  1.0  -0.118
  C  C137  1  0.214690  0.552110  0.785310  1.0  -0.0333
  C  C138  1  0.153800  0.552200  0.846200  1.0  -0.1184
  C  C139  1  0.552110  0.447890  0.785310  1.0  -0.0335
  C  C140  1  0.552200  0.447800  0.846200  1.0  -0.1225
  C  C141  1  0.214690  0.785310  0.447890  1.0  -0.0328
  C  C142  1  0.153800  0.846200  0.447800  1.0  -0.1138
  C  C143  1  0.447890  0.552110  0.214690  1.0  -0.0326
  C  C144  1  0.447800  0.552200  0.153800  1.0  -0.1208
  C  C145  1  0.785310  0.214690  0.552110  1.0  -0.0335
  C  C146  1  0.846200  0.153800  0.552200  1.0  -0.1159
  C  C147  1  0.785310  0.552110  0.447890  1.0  -0.033
  C  C148  1  0.846200  0.552200  0.447800  1.0  -0.1199
  C  C149  1  0.447890  0.214690  0.785310  1.0  -0.0319
  C  C150  1  0.447800  0.153800  0.846200  1.0  -0.1173
  C  C151  1  0.214690  0.447890  0.552110  1.0  -0.0339
  C  C152  1  0.153800  0.447800  0.552200  1.0  -0.121
  C  C153  1  0.552110  0.785310  0.214690  1.0  -0.0306
  C  C154  1  0.552200  0.846200  0.153800  1.0  -0.1165
  C  C155  1  0.785310  0.447890  0.552110  1.0  -0.0336
  C  C156  1  0.846200  0.447800  0.552200  1.0  -0.1179
  C  C157  1  0.447890  0.785310  0.214690  1.0  -0.0325
  C  C158  1  0.447800  0.846200  0.153800  1.0  -0.1145
  C  C159  1  0.214690  0.552110  0.447890  1.0  -0.0333
  C  C160  1  0.153800  0.552200  0.447800  1.0  -0.1152
  C  C161  1  0.552110  0.214690  0.785310  1.0  -0.032
  C  C162  1  0.552200  0.153800  0.846200  1.0  -0.1152
  C  C163  1  0.447890  0.552110  0.785310  1.0  -0.0331
  C  C164  1  0.447800  0.552200  0.846200  1.0  -0.1192
  C  C165  1  0.785310  0.214690  0.447890  1.0  -0.0328
  C  C166  1  0.846200  0.153800  0.447800  1.0  -0.1119
  C  C167  1  0.552110  0.447890  0.214690  1.0  -0.0334
  C  C168  1  0.552200  0.447800  0.153800  1.0  -0.12
  C  C169  1  0.214690  0.785310  0.552110  1.0  -0.0341
  C  C170  1  0.153800  0.846200  0.552200  1.0  -0.1151
  C  C171  1  0.552110  0.785310  0.447890  1.0  -0.0311
  C  C172  1  0.552200  0.846200  0.447800  1.0  -0.1143
  C  C173  1  0.214690  0.447890  0.785310  1.0  -0.0339
  C  C174  1  0.153800  0.447800  0.846200  1.0  -0.118
  C  C175  1  0.447890  0.214690  0.552110  1.0  -0.0327
  C  C176  1  0.447800  0.153800  0.552200  1.0  -0.1162
  C  C177  1  0.785310  0.552110  0.214690  1.0  -0.0333
  C  C178  1  0.846200  0.552200  0.153800  1.0  -0.1179
  C  C179  1  0.500000  0.689340  0.500000  1.0  0.6762
  C  C180  1  0.500000  0.755200  0.500000  1.0  -0.1098
  C  C181  1  0.500000  0.875200  0.500000  1.0  0.0246
  C  C182  1  0.500000  0.940660  0.500000  1.0  -0.1099
  C  C183  1  0.537180  0.932720  0.537180  1.0  0.0626
  C  C184  1  0.577700  0.859100  0.577700  1.0  -0.3518
  C  C185  1  0.462820  0.067280  0.462820  1.0  0.0614
  C  C186  1  0.422300  0.140900  0.422300  1.0  -0.3523
  C  C187  1  0.689340  0.500000  0.310660  1.0  0.6769
  C  C188  1  0.755200  0.500000  0.244800  1.0  -0.111
  C  C189  1  0.875200  0.500000  0.124800  1.0  0.023
  C  C190  1  0.940660  0.500000  0.059340  1.0  -0.1107
  C  C191  1  0.932720  0.537180  0.992920  1.0  0.0627
  C  C192  1  0.859100  0.577700  0.985500  1.0  -0.3505
  C  C193  1  0.067280  0.462820  0.007080  1.0  0.0623
  C  C194  1  0.140900  0.422300  0.014500  1.0  -0.3526
  C  C195  1  0.500000  0.310660  0.500000  1.0  0.6764
  C  C196  1  0.500000  0.244800  0.500000  1.0  -0.1094
  C  C197  1  0.500000  0.124800  0.500000  1.0  0.0243
  C  C198  1  0.500000  0.059340  0.500000  1.0  -0.1107
  C  C199  1  0.537180  0.992920  0.537180  1.0  0.0641
  C  C200  1  0.577700  0.985500  0.577700  1.0  -0.354
  C  C201  1  0.462820  0.007080  0.462820  1.0  0.0644
  C  C202  1  0.422300  0.014500  0.422300  1.0  -0.3504
  C  C203  1  0.310660  0.500000  0.689340  1.0  0.6761
  C  C204  1  0.244800  0.500000  0.755200  1.0  -0.1101
  C  C205  1  0.124800  0.500000  0.875200  1.0  0.0232
  C  C206  1  0.059340  0.500000  0.940660  1.0  -0.1112
  C  C207  1  0.992920  0.537180  0.932720  1.0  0.0642
  C  C208  1  0.985500  0.577700  0.859100  1.0  -0.3544
  C  C209  1  0.007080  0.462820  0.067280  1.0  0.064
  C  C210  1  0.014500  0.422300  0.140900  1.0  -0.3567
  C  C211  1  0.500000  0.500000  0.689340  1.0  0.6755
  C  C212  1  0.500000  0.500000  0.755200  1.0  -0.1104
  C  C213  1  0.500000  0.500000  0.875200  1.0  0.024
  C  C214  1  0.500000  0.500000  0.940660  1.0  -0.1104
  C  C215  1  0.537180  0.537180  0.932720  1.0  0.0619
  C  C216  1  0.577700  0.577700  0.859100  1.0  -0.3533
  C  C217  1  0.462820  0.462820  0.067280  1.0  0.0614
  C  C218  1  0.422300  0.422300  0.140900  1.0  -0.3506
  C  C219  1  0.310660  0.689340  0.500000  1.0  0.6758
  C  C220  1  0.244800  0.755200  0.500000  1.0  -0.1083
  C  C221  1  0.124800  0.875200  0.500000  1.0  0.0246
  C  C222  1  0.059340  0.940660  0.500000  1.0  -0.1099
  C  C223  1  0.992920  0.932720  0.537180  1.0  0.0609
  C  C224  1  0.985500  0.859100  0.577700  1.0  -0.3494
  C  C225  1  0.007080  0.067280  0.462820  1.0  0.0612
  C  C226  1  0.014500  0.140900  0.422300  1.0  -0.3526
  C  C227  1  0.500000  0.500000  0.310660  1.0  0.6752
  C  C228  1  0.500000  0.500000  0.244800  1.0  -0.1103
  C  C229  1  0.500000  0.500000  0.124800  1.0  0.023
  C  C230  1  0.500000  0.500000  0.059340  1.0  -0.1105
  C  C231  1  0.537180  0.537180  0.992920  1.0  0.0628
  C  C232  1  0.577700  0.577700  0.985500  1.0  -0.3521
  C  C233  1  0.462820  0.462820  0.007080  1.0  0.0619
  C  C234  1  0.422300  0.422300  0.014500  1.0  -0.3509
  C  C235  1  0.689340  0.310660  0.500000  1.0  0.6772
  C  C236  1  0.755200  0.244800  0.500000  1.0  -0.1091
  C  C237  1  0.875200  0.124800  0.500000  1.0  0.0239
  C  C238  1  0.940660  0.059340  0.500000  1.0  -0.1109
  C  C239  1  0.932720  0.992920  0.537180  1.0  0.0625
  C  C240  1  0.859100  0.985500  0.577700  1.0  -0.3525
  C  C241  1  0.067280  0.007080  0.462820  1.0  0.0629
  C  C242  1  0.140900  0.014500  0.422300  1.0  -0.3531
  C  C243  1  0.689340  0.500000  0.500000  1.0  0.677
  C  C244  1  0.755200  0.500000  0.500000  1.0  -0.1112
  C  C245  1  0.875200  0.500000  0.500000  1.0  0.0236
  C  C246  1  0.940660  0.500000  0.500000  1.0  -0.1104
  C  C247  1  0.932720  0.537180  0.537180  1.0  0.0624
  C  C248  1  0.859100  0.577700  0.577700  1.0  -0.3525
  C  C249  1  0.067280  0.462820  0.462820  1.0  0.0618
  C  C250  1  0.140900  0.422300  0.422300  1.0  -0.3522
  C  C251  1  0.500000  0.310660  0.689340  1.0  0.6763
  C  C252  1  0.500000  0.244800  0.755200  1.0  -0.1092
  C  C253  1  0.500000  0.124800  0.875200  1.0  0.0248
  C  C254  1  0.500000  0.059340  0.940660  1.0  -0.1104
  C  C255  1  0.537180  0.992920  0.932720  1.0  0.0643
  C  C256  1  0.577700  0.985500  0.859100  1.0  -0.3531
  C  C257  1  0.462820  0.007080  0.067280  1.0  0.0652
  C  C258  1  0.422300  0.014500  0.140900  1.0  -0.3533
  C  C259  1  0.310660  0.500000  0.500000  1.0  0.6762
  C  C260  1  0.244800  0.500000  0.500000  1.0  -0.1103
  C  C261  1  0.124800  0.500000  0.500000  1.0  0.0224
  C  C262  1  0.059340  0.500000  0.500000  1.0  -0.1116
  C  C263  1  0.992920  0.537180  0.537180  1.0  0.063
  C  C264  1  0.985500  0.577700  0.577700  1.0  -0.3565
  C  C265  1  0.007080  0.462820  0.462820  1.0  0.0636
  C  C266  1  0.014500  0.422300  0.422300  1.0  -0.3538
  C  C267  1  0.500000  0.689340  0.310660  1.0  0.6763
  C  C268  1  0.500000  0.755200  0.244800  1.0  -0.1099
  C  C269  1  0.500000  0.875200  0.124800  1.0  0.0241
  C  C270  1  0.500000  0.940660  0.059340  1.0  -0.1104
  C  C271  1  0.537180  0.932720  0.992920  1.0  0.0622
  C  C272  1  0.577700  0.859100  0.985500  1.0  -0.3512
  C  C273  1  0.462820  0.067280  0.007080  1.0  0.0615
  C  C274  1  0.422300  0.140900  0.014500  1.0  -0.3544
  O  O275  1  0.450470  0.666830  0.549530  1.0  -0.6048
  O  O276  1  0.666830  0.450470  0.333170  1.0  -0.6058
  O  O277  1  0.549530  0.333170  0.450470  1.0  -0.6045
  O  O278  1  0.333170  0.549530  0.666830  1.0  -0.6068
  O  O279  1  0.549530  0.450470  0.666830  1.0  -0.6049
  O  O280  1  0.333170  0.666830  0.450470  1.0  -0.6051
  O  O281  1  0.450470  0.549530  0.333170  1.0  -0.6062
  O  O282  1  0.666830  0.333170  0.549530  1.0  -0.6052
  O  O283  1  0.666830  0.549530  0.450470  1.0  -0.6055
  O  O284  1  0.450470  0.333170  0.666830  1.0  -0.6035
  O  O285  1  0.333170  0.450470  0.549530  1.0  -0.6051
  O  O286  1  0.549530  0.666830  0.333170  1.0  -0.6057
  O  O287  1  0.666830  0.450470  0.549530  1.0  -0.6052
  O  O288  1  0.450470  0.666830  0.333170  1.0  -0.6046
  O  O289  1  0.333170  0.549530  0.450470  1.0  -0.6062
  O  O290  1  0.549530  0.333170  0.666830  1.0  -0.6045
  O  O291  1  0.450470  0.549530  0.666830  1.0  -0.6052
  O  O292  1  0.666830  0.333170  0.450470  1.0  -0.607
  O  O293  1  0.549530  0.450470  0.333170  1.0  -0.6061
  O  O294  1  0.333170  0.666830  0.549530  1.0  -0.6045
  O  O295  1  0.549530  0.666830  0.450470  1.0  -0.6039
  O  O296  1  0.333170  0.450470  0.666830  1.0  -0.6053
  O  O297  1  0.450470  0.333170  0.549530  1.0  -0.6038
  O  O298  1  0.666830  0.549530  0.333170  1.0  -0.6077
  O  O299  1  0.462930  0.611210  0.462930  1.0  -0.7742
  O  O300  1  0.537070  0.388790  0.537070  1.0  -0.9442
  O  O301  1  0.611210  0.462930  0.462930  1.0  -0.774
  O  O302  1  0.388790  0.537070  0.537070  1.0  -0.9428
  O  O303  1  0.462930  0.462930  0.462930  1.0  -0.775
  O  O304  1  0.537070  0.537070  0.537070  1.0  -0.9448
  O  O305  1  0.462930  0.462930  0.611210  1.0  -0.7741
  O  O306  1  0.537070  0.537070  0.388790  1.0  -0.9443
