# generated using pymatgen
data_Ho2H14C21NO8
_symmetry_space_group_name_H-M   'P 1'
_cell_length_a   12.57290000
_cell_length_b   12.57290000
_cell_length_c   25.94400000
_cell_angle_alpha   90.00000000
_cell_angle_beta   90.00000000
_cell_angle_gamma   90.00000000
_symmetry_Int_Tables_number   1
_chemical_formula_structural   Ho2H14C21NO8
_chemical_formula_sum   'Ho8 H56 C84 N4 O32'
_cell_volume   4101.17081705
_cell_formula_units_Z   4
loop_
 _symmetry_equiv_pos_site_id
 _symmetry_equiv_pos_as_xyz
  1  'x, y, z'
loop_
 _atom_site_type_symbol
 _atom_site_label
 _atom_site_symmetry_multiplicity
 _atom_site_fract_x
 _atom_site_fract_y
 _atom_site_fract_z
 _atom_site_occupancy
 _atom_site_charge
  Ho  Ho1  1  0.143530  0.957240  0.448380  1.0  2.0946
  Ho  Ho2  1  0.856470  0.042760  0.448380  1.0  2.094
  Ho  Ho3  1  0.957240  0.856470  0.551620  1.0  2.0952
  Ho  Ho4  1  0.042760  0.143530  0.551620  1.0  2.0945
  Ho  Ho5  1  0.356470  0.457240  0.051620  1.0  2.0942
  Ho  Ho6  1  0.643530  0.542760  0.051620  1.0  2.094
  Ho  Ho7  1  0.542760  0.356470  0.948380  1.0  2.0951
  Ho  Ho8  1  0.457240  0.643530  0.948380  1.0  2.0943
  H  H9  1  0.960900  0.839300  0.443600  1.0  0.4766
  H  H10  1  0.343500  0.460200  0.221700  1.0  0.1133
  H  H11  1  0.347200  0.463100  0.310500  1.0  0.1098
  H  H12  1  0.368500  0.528100  0.450200  1.0  0.1269
  H  H13  1  0.277600  0.395100  0.495800  1.0  0.0838
  H  H14  1  0.391000  0.172700  0.403300  1.0  0.0903
  H  H15  1  0.507000  0.293500  0.365400  1.0  0.1328
  H  H16  1  0.039100  0.160700  0.443600  1.0  0.4766
  H  H17  1  0.656500  0.539800  0.221700  1.0  0.1139
  H  H18  1  0.652800  0.536900  0.310500  1.0  0.1094
  H  H19  1  0.631500  0.471900  0.450200  1.0  0.127
  H  H20  1  0.722400  0.604900  0.495800  1.0  0.083
  H  H21  1  0.609000  0.827300  0.403300  1.0  0.0907
  H  H22  1  0.493000  0.706500  0.365400  1.0  0.1327
  H  H23  1  0.839300  0.039100  0.556400  1.0  0.4771
  H  H24  1  0.460200  0.656500  0.778300  1.0  0.1127
  H  H25  1  0.463100  0.652800  0.689500  1.0  0.1074
  H  H26  1  0.528100  0.631500  0.549800  1.0  0.1264
  H  H27  1  0.395100  0.722400  0.504200  1.0  0.0842
  H  H28  1  0.172700  0.609000  0.596700  1.0  0.0891
  H  H29  1  0.293500  0.493000  0.634600  1.0  0.1329
  H  H30  1  0.160700  0.960900  0.556400  1.0  0.477
  H  H31  1  0.539800  0.343500  0.778300  1.0  0.1138
  H  H32  1  0.536900  0.347200  0.689500  1.0  0.1076
  H  H33  1  0.471900  0.368500  0.549800  1.0  0.1269
  H  H34  1  0.604900  0.277600  0.504200  1.0  0.0844
  H  H35  1  0.827300  0.391000  0.596700  1.0  0.0893
  H  H36  1  0.706500  0.507000  0.634600  1.0  0.1324
  H  H37  1  0.539100  0.339300  0.056400  1.0  0.4772
  H  H38  1  0.156500  0.960200  0.278300  1.0  0.1129
  H  H39  1  0.152800  0.963100  0.189500  1.0  0.1092
  H  H40  1  0.131500  0.028100  0.049800  1.0  0.1264
  H  H41  1  0.222400  0.895100  0.004200  1.0  0.0835
  H  H42  1  0.109000  0.672700  0.096700  1.0  0.0901
  H  H43  1  0.993000  0.793500  0.134600  1.0  0.133
  H  H44  1  0.460900  0.660700  0.056400  1.0  0.4781
  H  H45  1  0.843500  0.039800  0.278300  1.0  0.1128
  H  H46  1  0.847200  0.036900  0.189500  1.0  0.1095
  H  H47  1  0.868500  0.971900  0.049800  1.0  0.1274
  H  H48  1  0.777600  0.104900  0.004200  1.0  0.0842
  H  H49  1  0.891000  0.327300  0.096700  1.0  0.0908
  H  H50  1  0.007000  0.206500  0.134600  1.0  0.1325
  H  H51  1  0.660700  0.539100  0.943600  1.0  0.4777
  H  H52  1  0.039800  0.156500  0.721700  1.0  0.1132
  H  H53  1  0.036900  0.152800  0.810500  1.0  0.1074
  H  H54  1  0.971900  0.131500  0.950200  1.0  0.1271
  H  H55  1  0.104900  0.222400  0.995800  1.0  0.0839
  H  H56  1  0.327300  0.109000  0.903300  1.0  0.0898
  H  H57  1  0.206500  0.993000  0.865400  1.0  0.1328
  H  H58  1  0.339300  0.460900  0.943600  1.0  0.4767
  H  H59  1  0.960200  0.843500  0.721700  1.0  0.1139
  H  H60  1  0.963100  0.847200  0.810500  1.0  0.1079
  H  H61  1  0.028100  0.868500  0.950200  1.0  0.1263
  H  H62  1  0.895100  0.777600  0.995800  1.0  0.0838
  H  H63  1  0.672700  0.891000  0.903300  1.0  0.0889
  H  H64  1  0.793500  0.007000  0.865400  1.0  0.1325
  C  C65  1  0.405800  0.476300  0.239320  1.0  -0.023
  C  C66  1  0.409400  0.477800  0.292520  1.0  -0.1831
  C  C67  1  0.443700  0.422500  0.402550  1.0  0.1887
  C  C68  1  0.376000  0.456600  0.441720  1.0  -0.2271
  C  C69  1  0.319300  0.375400  0.467780  1.0  0.0163
  C  C70  1  0.321500  0.269500  0.454440  1.0  -0.2264
  C  C71  1  0.389800  0.243100  0.414300  1.0  0.0019
  C  C72  1  0.456600  0.315400  0.389400  1.0  -0.2365
  C  C73  1  0.250400  0.191000  0.477400  1.0  0.8389
  C  C74  1  0.594200  0.523700  0.239320  1.0  -0.0241
  C  C75  1  0.590600  0.522200  0.292520  1.0  -0.1809
  C  C76  1  0.556300  0.577500  0.402550  1.0  0.189
  C  C77  1  0.624000  0.543400  0.441720  1.0  -0.2247
  C  C78  1  0.680700  0.624600  0.467780  1.0  0.0178
  C  C79  1  0.678500  0.730500  0.454440  1.0  -0.225
  C  C80  1  0.610200  0.756900  0.414300  1.0  0.005
  C  C81  1  0.543400  0.684600  0.389400  1.0  -0.2383
  C  C82  1  0.749600  0.809000  0.477400  1.0  0.8215
  C  C83  1  0.476300  0.594200  0.760680  1.0  -0.0261
  C  C84  1  0.477800  0.590600  0.707480  1.0  -0.176
  C  C85  1  0.422500  0.556300  0.597450  1.0  0.1887
  C  C86  1  0.456600  0.624000  0.558280  1.0  -0.2257
  C  C87  1  0.375400  0.680700  0.532220  1.0  0.0111
  C  C88  1  0.269500  0.678500  0.545560  1.0  -0.2245
  C  C89  1  0.243100  0.610200  0.585700  1.0  0.0058
  C  C90  1  0.315400  0.543400  0.610600  1.0  -0.2385
  C  C91  1  0.191000  0.749600  0.522600  1.0  0.8401
  C  C92  1  0.523700  0.405800  0.760680  1.0  -0.0262
  C  C93  1  0.522200  0.409400  0.707480  1.0  -0.1907
  C  C94  1  0.577500  0.443700  0.597450  1.0  0.1888
  C  C95  1  0.543400  0.376000  0.558280  1.0  -0.2269
  C  C96  1  0.624600  0.319300  0.532220  1.0  0.0123
  C  C97  1  0.730500  0.321500  0.545560  1.0  -0.2246
  C  C98  1  0.756900  0.389800  0.585700  1.0  0.006
  C  C99  1  0.684600  0.456600  0.610600  1.0  -0.2361
  C  C100  1  0.809000  0.250400  0.522600  1.0  0.8192
  C  C101  1  0.094200  0.976300  0.260680  1.0  -0.0243
  C  C102  1  0.090600  0.977800  0.207480  1.0  -0.1752
  C  C103  1  0.056300  0.922500  0.097450  1.0  0.1889
  C  C104  1  0.124000  0.956600  0.058280  1.0  -0.2251
  C  C105  1  0.180700  0.875400  0.032220  1.0  0.0144
  C  C106  1  0.178500  0.769500  0.045560  1.0  -0.2256
  C  C107  1  0.110200  0.743100  0.085700  1.0  0.0026
  C  C108  1  0.043400  0.815400  0.110600  1.0  -0.2382
  C  C109  1  0.249600  0.691000  0.022600  1.0  0.8371
  C  C110  1  0.905800  0.023700  0.260680  1.0  -0.0248
  C  C111  1  0.909400  0.022200  0.207480  1.0  -0.1894
  C  C112  1  0.943700  0.077500  0.097450  1.0  0.1887
  C  C113  1  0.876000  0.043400  0.058280  1.0  -0.2266
  C  C114  1  0.819300  0.124600  0.032220  1.0  0.0106
  C  C115  1  0.821500  0.230500  0.045560  1.0  -0.2247
  C  C116  1  0.889800  0.256900  0.085700  1.0  0.0056
  C  C117  1  0.956600  0.184600  0.110600  1.0  -0.2389
  C  C118  1  0.750400  0.309000  0.022600  1.0  0.822
  C  C119  1  0.023700  0.094200  0.739320  1.0  -0.0267
  C  C120  1  0.022200  0.090600  0.792520  1.0  -0.1754
  C  C121  1  0.077500  0.056300  0.902550  1.0  0.1892
  C  C122  1  0.043400  0.124000  0.941720  1.0  -0.2261
  C  C123  1  0.124600  0.180700  0.967780  1.0  0.0155
  C  C124  1  0.230500  0.178500  0.954440  1.0  -0.2244
  C  C125  1  0.256900  0.110200  0.914300  1.0  0.0056
  C  C126  1  0.184600  0.043400  0.889400  1.0  -0.2346
  C  C127  1  0.309000  0.249600  0.977400  1.0  0.8387
  C  C128  1  0.976300  0.905800  0.739320  1.0  -0.0262
  C  C129  1  0.977800  0.909400  0.792520  1.0  -0.1893
  C  C130  1  0.922500  0.943700  0.902550  1.0  0.1884
  C  C131  1  0.956600  0.876000  0.941720  1.0  -0.2273
  C  C132  1  0.875400  0.819300  0.967780  1.0  0.016
  C  C133  1  0.769500  0.821500  0.954440  1.0  -0.2258
  C  C134  1  0.743100  0.889800  0.914300  1.0  0.0047
  C  C135  1  0.815400  0.956600  0.889400  1.0  -0.2375
  C  C136  1  0.691000  0.750400  0.977400  1.0  0.8225
  C  C137  1  0.500000  0.500000  0.155700  1.0  0.8105
  C  C138  1  0.500000  0.500000  0.213290  1.0  -0.1878
  C  C139  1  0.500000  0.500000  0.320400  1.0  0.1722
  C  C140  1  0.500000  0.500000  0.844300  1.0  0.8071
  C  C141  1  0.500000  0.500000  0.786710  1.0  -0.1868
  C  C142  1  0.500000  0.500000  0.679600  1.0  0.171
  C  C143  1  0.000000  0.000000  0.344300  1.0  0.8071
  C  C144  1  0.000000  0.000000  0.286710  1.0  -0.1868
  C  C145  1  0.000000  0.000000  0.179600  1.0  0.171
  C  C146  1  0.000000  0.000000  0.655700  1.0  0.8105
  C  C147  1  0.000000  0.000000  0.713290  1.0  -0.1878
  C  C148  1  0.000000  0.000000  0.820400  1.0  0.1722
  N  N149  1  0.500000  0.500000  0.375400  1.0  -0.1483
  N  N150  1  0.500000  0.500000  0.624600  1.0  -0.1486
  N  N151  1  0.000000  0.000000  0.124600  1.0  -0.1486
  N  N152  1  0.000000  0.000000  0.875400  1.0  -0.1483
  O  O153  1  0.975500  0.892600  0.462520  1.0  -1.2682
  O  O154  1  0.188900  0.223200  0.511260  1.0  -0.806
  O  O155  1  0.258000  0.096500  0.463490  1.0  -0.8044
  O  O156  1  0.585900  0.494600  0.132720  1.0  -0.8145
  O  O157  1  0.024500  0.107400  0.462520  1.0  -1.2671
  O  O158  1  0.811100  0.776800  0.511260  1.0  -0.8042
  O  O159  1  0.742000  0.903500  0.463490  1.0  -0.8072
  O  O160  1  0.414100  0.505400  0.132720  1.0  -0.8146
  O  O161  1  0.892600  0.024500  0.537480  1.0  -1.2689
  O  O162  1  0.223200  0.811100  0.488740  1.0  -0.808
  O  O163  1  0.096500  0.742000  0.536510  1.0  -0.8027
  O  O164  1  0.494600  0.414100  0.867280  1.0  -0.8102
  O  O165  1  0.107400  0.975500  0.537480  1.0  -1.2661
  O  O166  1  0.776800  0.188900  0.488740  1.0  -0.8063
  O  O167  1  0.903500  0.258000  0.536510  1.0  -0.8056
  O  O168  1  0.505400  0.585900  0.867280  1.0  -0.8097
  O  O169  1  0.524500  0.392600  0.037480  1.0  -1.2682
  O  O170  1  0.311100  0.723200  0.988740  1.0  -0.8055
  O  O171  1  0.242000  0.596500  0.036510  1.0  -0.8026
  O  O172  1  0.914100  0.994600  0.367280  1.0  -0.8112
  O  O173  1  0.475500  0.607400  0.037480  1.0  -1.2687
  O  O174  1  0.688900  0.276800  0.988740  1.0  -0.8051
  O  O175  1  0.758000  0.403500  0.036510  1.0  -0.805
  O  O176  1  0.085900  0.005400  0.367280  1.0  -0.8122
  O  O177  1  0.607400  0.524500  0.962520  1.0  -1.2664
  O  O178  1  0.276800  0.311100  0.011260  1.0  -0.8078
  O  O179  1  0.403500  0.242000  0.963490  1.0  -0.8042
  O  O180  1  0.005400  0.914100  0.632720  1.0  -0.8127
  O  O181  1  0.392600  0.475500  0.962520  1.0  -1.2673
  O  O182  1  0.723200  0.688900  0.011260  1.0  -0.8065
  O  O183  1  0.596500  0.758000  0.963490  1.0  -0.8063
  O  O184  1  0.994600  0.085900  0.632720  1.0  -0.8101
