# generated using pymatgen
data_AgH16(C5N)4
_symmetry_space_group_name_H-M   'P 1'
_cell_length_a   16.11900000
_cell_length_b   20.89800000
_cell_length_c   13.32500000
_cell_angle_alpha   90.00000000
_cell_angle_beta   90.00000000
_cell_angle_gamma   90.00000000
_symmetry_Int_Tables_number   1
_chemical_formula_structural   AgH16(C5N)4
_chemical_formula_sum   'Ag8 H128 C160 N32'
_cell_volume   4488.59103615
_cell_formula_units_Z   8
loop_
 _symmetry_equiv_pos_site_id
 _symmetry_equiv_pos_as_xyz
  1  'x, y, z'
loop_
 _atom_site_type_symbol
 _atom_site_label
 _atom_site_symmetry_multiplicity
 _atom_site_fract_x
 _atom_site_fract_y
 _atom_site_fract_z
 _atom_site_occupancy
 _atom_site_charge
  Ag  Ag1  1  0.504390  0.236140  0.563770  1.0  0.3398
  Ag  Ag2  1  0.495610  0.736140  0.936230  1.0  0.3397
  Ag  Ag3  1  0.004390  0.236140  0.936230  1.0  0.3394
  Ag  Ag4  1  0.995610  0.736140  0.563770  1.0  0.3401
  Ag  Ag5  1  0.995610  0.763860  0.063770  1.0  0.34
  Ag  Ag6  1  0.004390  0.263860  0.436230  1.0  0.3393
  Ag  Ag7  1  0.495610  0.763860  0.436230  1.0  0.3396
  Ag  Ag8  1  0.504390  0.263860  0.063770  1.0  0.3397
  H  H9  1  0.446800  0.328600  0.375400  1.0  0.0548
  H  H10  1  0.351300  0.166700  0.456100  1.0  0.0646
  H  H11  1  0.363100  0.333000  0.238100  1.0  0.1055
  H  H12  1  0.267500  0.165300  0.318800  1.0  0.1091
  H  H13  1  0.247900  0.153900  0.146400  1.0  0.1023
  H  H14  1  0.231800  0.344900  0.159300  1.0  0.0991
  H  H15  1  0.160200  0.156300  0.013600  1.0  0.0515
  H  H16  1  0.140300  0.340900  0.031300  1.0  0.0636
  H  H17  1  0.601300  0.149800  0.716400  1.0  0.0507
  H  H18  1  0.434300  0.095200  0.532300  1.0  0.0707
  H  H19  1  0.607600  0.051700  0.788800  1.0  0.1016
  H  H20  1  0.433400  0.995200  0.601100  1.0  0.0994
  H  H21  1  0.605800  0.961400  0.855000  1.0  0.1053
  H  H22  1  0.438900  0.903900  0.658000  1.0  0.0963
  H  H23  1  0.596700  0.864600  0.930200  1.0  0.0572
  H  H24  1  0.435000  0.807900  0.737500  1.0  0.0518
  H  H25  1  0.553200  0.828600  0.124600  1.0  0.0552
  H  H26  1  0.648700  0.666667  0.043900  1.0  0.065
  H  H27  1  0.636900  0.833000  0.261900  1.0  0.1055
  H  H28  1  0.732500  0.665300  0.181200  1.0  0.1092
  H  H29  1  0.752100  0.653900  0.353600  1.0  0.1022
  H  H30  1  0.768200  0.844900  0.340700  1.0  0.0997
  H  H31  1  0.839800  0.656300  0.486400  1.0  0.0517
  H  H32  1  0.859700  0.840900  0.468700  1.0  0.0636
  H  H33  1  0.398700  0.649800  0.783600  1.0  0.0508
  H  H34  1  0.565700  0.595200  0.967700  1.0  0.0742
  H  H35  1  0.392400  0.551700  0.711200  1.0  0.1017
  H  H36  1  0.566600  0.495200  0.898900  1.0  0.1003
  H  H37  1  0.394200  0.461400  0.645000  1.0  0.1062
  H  H38  1  0.561100  0.403900  0.842000  1.0  0.0959
  H  H39  1  0.403300  0.364600  0.569800  1.0  0.0567
  H  H40  1  0.565000  0.307900  0.762500  1.0  0.0516
  H  H41  1  0.946800  0.328600  0.124600  1.0  0.0549
  H  H42  1  0.851300  0.166700  0.043900  1.0  0.0645
  H  H43  1  0.863100  0.333000  0.261900  1.0  0.1053
  H  H44  1  0.767500  0.165300  0.181200  1.0  0.109
  H  H45  1  0.747900  0.153900  0.353600  1.0  0.1023
  H  H46  1  0.731800  0.344900  0.340700  1.0  0.0992
  H  H47  1  0.660200  0.156300  0.486400  1.0  0.0515
  H  H48  1  0.640300  0.340900  0.468700  1.0  0.0641
  H  H49  1  0.101300  0.149800  0.783600  1.0  0.0508
  H  H50  1  0.934300  0.095200  0.967700  1.0  0.0724
  H  H51  1  0.107600  0.051700  0.711200  1.0  0.1019
  H  H52  1  0.933400  0.995200  0.898900  1.0  0.0993
  H  H53  1  0.105800  0.961400  0.645000  1.0  0.1055
  H  H54  1  0.938900  0.903900  0.842000  1.0  0.0957
  H  H55  1  0.096700  0.864600  0.569800  1.0  0.0567
  H  H56  1  0.935000  0.807900  0.762500  1.0  0.0516
  H  H57  1  0.053200  0.828600  0.375400  1.0  0.0552
  H  H58  1  0.148700  0.666667  0.456100  1.0  0.0651
  H  H59  1  0.136900  0.833000  0.238100  1.0  0.1055
  H  H60  1  0.232500  0.665300  0.318800  1.0  0.1092
  H  H61  1  0.252100  0.653900  0.146400  1.0  0.1022
  H  H62  1  0.268200  0.844900  0.159300  1.0  0.0995
  H  H63  1  0.339800  0.656300  0.013600  1.0  0.0517
  H  H64  1  0.359700  0.840900  0.031300  1.0  0.0633
  H  H65  1  0.898700  0.649800  0.716400  1.0  0.0508
  H  H66  1  0.065700  0.595200  0.532300  1.0  0.0723
  H  H67  1  0.892400  0.551700  0.788800  1.0  0.1018
  H  H68  1  0.066600  0.495200  0.601100  1.0  0.1004
  H  H69  1  0.894200  0.461400  0.855000  1.0  0.1059
  H  H70  1  0.061100  0.403900  0.658000  1.0  0.0961
  H  H71  1  0.903300  0.364600  0.930200  1.0  0.0573
  H  H72  1  0.065000  0.307900  0.737500  1.0  0.0517
  H  H73  1  0.053200  0.671400  0.875400  1.0  0.0558
  H  H74  1  0.148700  0.833300  0.956100  1.0  0.0646
  H  H75  1  0.136900  0.667000  0.738100  1.0  0.1055
  H  H76  1  0.232500  0.834700  0.818800  1.0  0.1092
  H  H77  1  0.252100  0.846100  0.646400  1.0  0.1024
  H  H78  1  0.268200  0.655100  0.659300  1.0  0.0992
  H  H79  1  0.339800  0.843700  0.513600  1.0  0.0518
  H  H80  1  0.359700  0.659100  0.531300  1.0  0.0636
  H  H81  1  0.898700  0.850200  0.216400  1.0  0.0503
  H  H82  1  0.065700  0.904800  0.032300  1.0  0.0701
  H  H83  1  0.892400  0.948300  0.288800  1.0  0.1019
  H  H84  1  0.066600  0.004800  0.101100  1.0  0.1009
  H  H85  1  0.894200  0.038600  0.355000  1.0  0.1057
  H  H86  1  0.061100  0.096100  0.158000  1.0  0.0958
  H  H87  1  0.903300  0.135400  0.430200  1.0  0.0573
  H  H88  1  0.065000  0.192100  0.237500  1.0  0.0516
  H  H89  1  0.946800  0.171400  0.624600  1.0  0.0556
  H  H90  1  0.851300  0.333333  0.543900  1.0  0.065
  H  H91  1  0.863100  0.167000  0.761900  1.0  0.1053
  H  H92  1  0.767500  0.334700  0.681200  1.0  0.1102
  H  H93  1  0.747900  0.346100  0.853600  1.0  0.1023
  H  H94  1  0.731800  0.155100  0.840700  1.0  0.0993
  H  H95  1  0.660200  0.343700  0.986400  1.0  0.0514
  H  H96  1  0.640300  0.159100  0.968700  1.0  0.0641
  H  H97  1  0.101300  0.350200  0.283600  1.0  0.0506
  H  H98  1  0.934300  0.404800  0.467700  1.0  0.0743
  H  H99  1  0.107600  0.448300  0.211200  1.0  0.1022
  H  H100  1  0.933400  0.504800  0.398900  1.0  0.0998
  H  H101  1  0.105800  0.538600  0.145000  1.0  0.1056
  H  H102  1  0.938900  0.596100  0.342000  1.0  0.0959
  H  H103  1  0.096700  0.635400  0.069800  1.0  0.057
  H  H104  1  0.935000  0.692100  0.262500  1.0  0.0517
  H  H105  1  0.553200  0.671400  0.624600  1.0  0.0556
  H  H106  1  0.648700  0.833300  0.543900  1.0  0.0652
  H  H107  1  0.636900  0.667000  0.761900  1.0  0.1055
  H  H108  1  0.732500  0.834700  0.681200  1.0  0.1095
  H  H109  1  0.752100  0.846100  0.853600  1.0  0.1025
  H  H110  1  0.768200  0.655100  0.840700  1.0  0.0995
  H  H111  1  0.839800  0.843700  0.986400  1.0  0.0517
  H  H112  1  0.859700  0.659100  0.968700  1.0  0.0641
  H  H113  1  0.398700  0.850200  0.283600  1.0  0.0507
  H  H114  1  0.565700  0.904800  0.467700  1.0  0.0713
  H  H115  1  0.392400  0.948300  0.211200  1.0  0.102
  H  H116  1  0.566600  0.004800  0.398900  1.0  0.1006
  H  H117  1  0.394200  0.038600  0.145000  1.0  0.1057
  H  H118  1  0.561100  0.096100  0.342000  1.0  0.0959
  H  H119  1  0.403300  0.135400  0.069800  1.0  0.057
  H  H120  1  0.565000  0.192100  0.262500  1.0  0.0515
  H  H121  1  0.446800  0.171400  0.875400  1.0  0.0558
  H  H122  1  0.351300  0.333333  0.956100  1.0  0.0643
  H  H123  1  0.363100  0.167000  0.738100  1.0  0.1053
  H  H124  1  0.267500  0.334700  0.818800  1.0  0.1099
  H  H125  1  0.247900  0.346100  0.646400  1.0  0.1023
  H  H126  1  0.231800  0.155100  0.659300  1.0  0.099
  H  H127  1  0.160200  0.343700  0.513600  1.0  0.0514
  H  H128  1  0.140300  0.159100  0.531300  1.0  0.0634
  H  H129  1  0.601300  0.350200  0.216400  1.0  0.0502
  H  H130  1  0.434300  0.404800  0.032300  1.0  0.0731
  H  H131  1  0.607600  0.448300  0.288800  1.0  0.1017
  H  H132  1  0.433400  0.504800  0.101100  1.0  0.1002
  H  H133  1  0.605800  0.538600  0.355000  1.0  0.1059
  H  H134  1  0.438900  0.596100  0.158000  1.0  0.0959
  H  H135  1  0.596700  0.635400  0.430200  1.0  0.0571
  H  H136  1  0.435000  0.692100  0.237500  1.0  0.052
  C  C137  1  0.410000  0.295100  0.363900  1.0  0.1603
  C  C138  1  0.354700  0.200400  0.410700  1.0  0.1571
  C  C139  1  0.360000  0.298100  0.281200  1.0  -0.2159
  C  C140  1  0.303300  0.199600  0.328900  1.0  -0.2256
  C  C141  1  0.304800  0.249100  0.262100  1.0  0.0775
  C  C142  1  0.250400  0.249600  0.172700  1.0  0.0906
  C  C143  1  0.226900  0.192900  0.124400  1.0  -0.2271
  C  C144  1  0.216800  0.305400  0.132700  1.0  -0.2114
  C  C145  1  0.173200  0.194700  0.045200  1.0  0.1598
  C  C146  1  0.162300  0.302600  0.055000  1.0  0.155
  C  C147  1  0.566100  0.118100  0.692100  1.0  0.162
  C  C148  1  0.469600  0.086900  0.586000  1.0  0.1567
  C  C149  1  0.570500  0.058900  0.736400  1.0  -0.2274
  C  C150  1  0.469300  0.026000  0.626800  1.0  -0.2109
  C  C151  1  0.520700  0.010600  0.703700  1.0  0.0681
  C  C152  1  0.520400  0.945600  0.750100  1.0  0.0678
  C  C153  1  0.568800  0.931200  0.830200  1.0  -0.2325
  C  C154  1  0.471300  0.897400  0.714900  1.0  -0.2246
  C  C155  1  0.563300  0.872500  0.874600  1.0  0.156
  C  C156  1  0.469500  0.839600  0.763200  1.0  0.1736
  C  C157  1  0.590000  0.795100  0.136100  1.0  0.1602
  C  C158  1  0.645300  0.700400  0.089300  1.0  0.1561
  C  C159  1  0.640000  0.798100  0.218800  1.0  -0.2161
  C  C160  1  0.696700  0.699600  0.171100  1.0  -0.2271
  C  C161  1  0.695200  0.749100  0.237900  1.0  0.0781
  C  C162  1  0.749600  0.749600  0.327300  1.0  0.0908
  C  C163  1  0.773100  0.692900  0.375600  1.0  -0.2274
  C  C164  1  0.783200  0.805400  0.367300  1.0  -0.2125
  C  C165  1  0.826800  0.694700  0.454800  1.0  0.1599
  C  C166  1  0.837700  0.802600  0.445000  1.0  0.1554
  C  C167  1  0.433900  0.618100  0.807900  1.0  0.1627
  C  C168  1  0.530400  0.586900  0.914000  1.0  0.1571
  C  C169  1  0.429500  0.558900  0.763600  1.0  -0.2272
  C  C170  1  0.530700  0.526000  0.873200  1.0  -0.2088
  C  C171  1  0.479300  0.510600  0.796300  1.0  0.0681
  C  C172  1  0.479600  0.445600  0.749900  1.0  0.068
  C  C173  1  0.431200  0.431200  0.669800  1.0  -0.2334
  C  C174  1  0.528700  0.397400  0.785100  1.0  -0.2252
  C  C175  1  0.436700  0.372500  0.625400  1.0  0.1567
  C  C176  1  0.530500  0.339600  0.736800  1.0  0.1732
  C  C177  1  0.910000  0.295100  0.136100  1.0  0.1602
  C  C178  1  0.854700  0.200400  0.089300  1.0  0.1576
  C  C179  1  0.860000  0.298100  0.218800  1.0  -0.2164
  C  C180  1  0.803300  0.199600  0.171100  1.0  -0.2256
  C  C181  1  0.804800  0.249100  0.237900  1.0  0.077
  C  C182  1  0.750400  0.249600  0.327300  1.0  0.0906
  C  C183  1  0.726900  0.192900  0.375600  1.0  -0.2266
  C  C184  1  0.716800  0.305400  0.367300  1.0  -0.2114
  C  C185  1  0.673200  0.194700  0.454800  1.0  0.1593
  C  C186  1  0.662300  0.302600  0.445000  1.0  0.1548
  C  C187  1  0.066100  0.118100  0.807900  1.0  0.1626
  C  C188  1  0.969600  0.086900  0.914000  1.0  0.1569
  C  C189  1  0.070500  0.058900  0.763600  1.0  -0.2267
  C  C190  1  0.969300  0.026000  0.873200  1.0  -0.2107
  C  C191  1  0.020700  0.010600  0.796300  1.0  0.0682
  C  C192  1  0.020400  0.945600  0.749900  1.0  0.068
  C  C193  1  0.068800  0.931200  0.669800  1.0  -0.2334
  C  C194  1  0.971300  0.897400  0.785100  1.0  -0.2247
  C  C195  1  0.063300  0.872500  0.625400  1.0  0.1571
  C  C196  1  0.969500  0.839600  0.736800  1.0  0.1732
  C  C197  1  0.090000  0.795100  0.363900  1.0  0.1601
  C  C198  1  0.145300  0.700400  0.410700  1.0  0.1555
  C  C199  1  0.140000  0.798100  0.281200  1.0  -0.2157
  C  C200  1  0.196700  0.699600  0.328900  1.0  -0.2274
  C  C201  1  0.195200  0.749100  0.262100  1.0  0.0783
  C  C202  1  0.249600  0.749600  0.172700  1.0  0.0909
  C  C203  1  0.273100  0.692900  0.124400  1.0  -0.2278
  C  C204  1  0.283200  0.805400  0.132700  1.0  -0.2125
  C  C205  1  0.326800  0.694700  0.045200  1.0  0.16
  C  C206  1  0.337700  0.802600  0.055000  1.0  0.1556
  C  C207  1  0.933900  0.618100  0.692100  1.0  0.1621
  C  C208  1  0.030400  0.586900  0.586000  1.0  0.1563
  C  C209  1  0.929500  0.558900  0.736400  1.0  -0.2271
  C  C210  1  0.030700  0.526000  0.626800  1.0  -0.2091
  C  C211  1  0.979300  0.510600  0.703700  1.0  0.0679
  C  C212  1  0.979600  0.445600  0.750100  1.0  0.0679
  C  C213  1  0.931200  0.431200  0.830200  1.0  -0.2339
  C  C214  1  0.028700  0.397400  0.714900  1.0  -0.2248
  C  C215  1  0.936700  0.372500  0.874600  1.0  0.1557
  C  C216  1  0.030500  0.339600  0.763200  1.0  0.1734
  C  C217  1  0.090000  0.704900  0.863900  1.0  0.1603
  C  C218  1  0.145300  0.799600  0.910700  1.0  0.1567
  C  C219  1  0.140000  0.701900  0.781200  1.0  -0.2155
  C  C220  1  0.196700  0.800400  0.828900  1.0  -0.2296
  C  C221  1  0.195200  0.750900  0.762100  1.0  0.0782
  C  C222  1  0.249600  0.750400  0.672700  1.0  0.0909
  C  C223  1  0.273100  0.807100  0.624400  1.0  -0.2283
  C  C224  1  0.283200  0.694600  0.632700  1.0  -0.2119
  C  C225  1  0.326800  0.805300  0.545200  1.0  0.1595
  C  C226  1  0.337700  0.697400  0.555000  1.0  0.155
  C  C227  1  0.933900  0.881900  0.192100  1.0  0.161
  C  C228  1  0.030400  0.913100  0.086000  1.0  0.1562
  C  C229  1  0.929500  0.941100  0.236400  1.0  -0.2276
  C  C230  1  0.030700  0.974000  0.126800  1.0  -0.2089
  C  C231  1  0.979300  0.989400  0.203700  1.0  0.0686
  C  C232  1  0.979600  0.054400  0.250100  1.0  0.0683
  C  C233  1  0.931200  0.068800  0.330200  1.0  -0.2338
  C  C234  1  0.028700  0.102600  0.214900  1.0  -0.225
  C  C235  1  0.936700  0.127500  0.374600  1.0  0.156
  C  C236  1  0.030500  0.160400  0.263200  1.0  0.1742
  C  C237  1  0.910000  0.204900  0.636100  1.0  0.1591
  C  C238  1  0.854700  0.299600  0.589300  1.0  0.1562
  C  C239  1  0.860000  0.201900  0.718800  1.0  -0.2162
  C  C240  1  0.803300  0.300400  0.671100  1.0  -0.2277
  C  C241  1  0.804800  0.250900  0.737900  1.0  0.0769
  C  C242  1  0.750400  0.250400  0.827300  1.0  0.0906
  C  C243  1  0.726900  0.307100  0.875600  1.0  -0.2274
  C  C244  1  0.716800  0.194600  0.867300  1.0  -0.2106
  C  C245  1  0.673200  0.305300  0.954800  1.0  0.1587
  C  C246  1  0.662300  0.197400  0.945000  1.0  0.1547
  C  C247  1  0.066100  0.381900  0.307900  1.0  0.1615
  C  C248  1  0.969600  0.413100  0.414000  1.0  0.1572
  C  C249  1  0.070500  0.441100  0.263600  1.0  -0.2271
  C  C250  1  0.969300  0.474000  0.373200  1.0  -0.2102
  C  C251  1  0.020700  0.489400  0.296300  1.0  0.0693
  C  C252  1  0.020400  0.554400  0.249900  1.0  0.0679
  C  C253  1  0.068800  0.568800  0.169800  1.0  -0.2332
  C  C254  1  0.971300  0.602600  0.285100  1.0  -0.2251
  C  C255  1  0.063300  0.627500  0.125400  1.0  0.1569
  C  C256  1  0.969500  0.660400  0.236800  1.0  0.1737
  C  C257  1  0.590000  0.704900  0.636100  1.0  0.1594
  C  C258  1  0.645300  0.799600  0.589300  1.0  0.157
  C  C259  1  0.640000  0.701900  0.718800  1.0  -0.2161
  C  C260  1  0.696700  0.800400  0.671100  1.0  -0.2295
  C  C261  1  0.695200  0.750900  0.737900  1.0  0.0779
  C  C262  1  0.749600  0.750400  0.827300  1.0  0.0908
  C  C263  1  0.773100  0.807100  0.875600  1.0  -0.2282
  C  C264  1  0.783200  0.694600  0.867300  1.0  -0.2116
  C  C265  1  0.826800  0.805300  0.954800  1.0  0.1591
  C  C266  1  0.837700  0.697400  0.945000  1.0  0.155
  C  C267  1  0.433900  0.881900  0.307900  1.0  0.1614
  C  C268  1  0.530400  0.913100  0.414000  1.0  0.157
  C  C269  1  0.429500  0.941100  0.263600  1.0  -0.2273
  C  C270  1  0.530700  0.974000  0.373200  1.0  -0.2089
  C  C271  1  0.479300  0.989400  0.296300  1.0  0.0692
  C  C272  1  0.479600  0.054400  0.249900  1.0  0.0681
  C  C273  1  0.431200  0.068800  0.169800  1.0  -0.2333
  C  C274  1  0.528700  0.102600  0.285100  1.0  -0.2255
  C  C275  1  0.436700  0.127500  0.125400  1.0  0.1569
  C  C276  1  0.530500  0.160400  0.236800  1.0  0.1737
  C  C277  1  0.410000  0.204900  0.863900  1.0  0.1601
  C  C278  1  0.354700  0.299600  0.910700  1.0  0.1554
  C  C279  1  0.360000  0.201900  0.781200  1.0  -0.2153
  C  C280  1  0.303300  0.300400  0.828900  1.0  -0.2275
  C  C281  1  0.304800  0.250900  0.762100  1.0  0.0775
  C  C282  1  0.250400  0.250400  0.672700  1.0  0.0906
  C  C283  1  0.226900  0.307100  0.624400  1.0  -0.2276
  C  C284  1  0.216800  0.194600  0.632700  1.0  -0.2109
  C  C285  1  0.173200  0.305300  0.545200  1.0  0.1594
  C  C286  1  0.162300  0.197400  0.555000  1.0  0.1546
  C  C287  1  0.566100  0.381900  0.192100  1.0  0.161
  C  C288  1  0.469600  0.413100  0.086000  1.0  0.1567
  C  C289  1  0.570500  0.441100  0.236400  1.0  -0.2281
  C  C290  1  0.469300  0.474000  0.126800  1.0  -0.2102
  C  C291  1  0.520700  0.489400  0.203700  1.0  0.0687
  C  C292  1  0.520400  0.554400  0.250100  1.0  0.0681
  C  C293  1  0.568800  0.568800  0.330200  1.0  -0.233
  C  C294  1  0.471300  0.602600  0.214900  1.0  -0.2248
  C  C295  1  0.563300  0.627500  0.374600  1.0  0.1559
  C  C296  1  0.469500  0.660400  0.263200  1.0  0.1744
  N  N297  1  0.409000  0.246800  0.428700  1.0  -0.3814
  N  N298  1  0.138200  0.248200  0.010300  1.0  -0.3666
  N  N299  1  0.516700  0.133500  0.618800  1.0  -0.3528
  N  N300  1  0.513600  0.826100  0.844000  1.0  -0.3316
  N  N301  1  0.591000  0.746800  0.071300  1.0  -0.3813
  N  N302  1  0.861800  0.748200  0.489700  1.0  -0.3694
  N  N303  1  0.483300  0.633500  0.881200  1.0  -0.3526
  N  N304  1  0.486400  0.326100  0.656000  1.0  -0.331
  N  N305  1  0.909000  0.246800  0.071300  1.0  -0.3818
  N  N306  1  0.638200  0.248200  0.489700  1.0  -0.3702
  N  N307  1  0.016700  0.133500  0.881200  1.0  -0.3527
  N  N308  1  0.013600  0.826100  0.656000  1.0  -0.3315
  N  N309  1  0.091000  0.746800  0.428700  1.0  -0.3819
  N  N310  1  0.361800  0.748200  0.010300  1.0  -0.3667
  N  N311  1  0.983300  0.633500  0.618800  1.0  -0.3529
  N  N312  1  0.986400  0.326100  0.844000  1.0  -0.3309
  N  N313  1  0.091000  0.753200  0.928700  1.0  -0.3817
  N  N314  1  0.361800  0.751800  0.510300  1.0  -0.3665
  N  N315  1  0.983300  0.866500  0.118800  1.0  -0.3538
  N  N316  1  0.986400  0.173900  0.344000  1.0  -0.3302
  N  N317  1  0.909000  0.253200  0.571300  1.0  -0.3817
  N  N318  1  0.638200  0.251800  0.989700  1.0  -0.3701
  N  N319  1  0.016700  0.366500  0.381200  1.0  -0.3531
  N  N320  1  0.013600  0.673900  0.156000  1.0  -0.3304
  N  N321  1  0.591000  0.753200  0.571300  1.0  -0.3811
  N  N322  1  0.861800  0.751800  0.989700  1.0  -0.3692
  N  N323  1  0.483300  0.866500  0.381200  1.0  -0.3531
  N  N324  1  0.486400  0.173900  0.156000  1.0  -0.3302
  N  N325  1  0.409000  0.253200  0.928700  1.0  -0.3811
  N  N326  1  0.138200  0.251800  0.510300  1.0  -0.3665
  N  N327  1  0.516700  0.366500  0.118800  1.0  -0.3538
  N  N328  1  0.513600  0.673900  0.344000  1.0  -0.3304
