# generated using pymatgen
data_AgH8(C3N)4
_symmetry_space_group_name_H-M   'P 1'
_cell_length_a   12.26900000
_cell_length_b   12.26900000
_cell_length_c   4.82200000
_cell_angle_alpha   90.00000000
_cell_angle_beta   90.00000000
_cell_angle_gamma   90.00000000
_symmetry_Int_Tables_number   1
_chemical_formula_structural   AgH8(C3N)4
_chemical_formula_sum   'Ag2 H16 C24 N8'
_cell_volume   725.84775674
_cell_formula_units_Z   2
loop_
 _symmetry_equiv_pos_site_id
 _symmetry_equiv_pos_as_xyz
  1  'x, y, z'
loop_
 _atom_site_type_symbol
 _atom_site_label
 _atom_site_symmetry_multiplicity
 _atom_site_fract_x
 _atom_site_fract_y
 _atom_site_fract_z
 _atom_site_occupancy
 _atom_site_charge
  Ag  Ag1  1  0.500000  0.000000  0.000000  1.0  0.3909
  Ag  Ag2  1  0.000000  0.500000  0.000000  1.0  0.3909
  H  H3  1  0.741600  0.018100  0.229000  1.0  0.0657
  H  H4  1  0.855600  0.124500  0.489000  1.0  0.1204
  H  H5  1  0.258400  0.981900  0.229000  1.0  0.0659
  H  H6  1  0.144400  0.875500  0.489000  1.0  0.1207
  H  H7  1  0.981900  0.741600  0.229000  1.0  0.0651
  H  H8  1  0.875500  0.855600  0.489000  1.0  0.1203
  H  H9  1  0.018100  0.258400  0.229000  1.0  0.0656
  H  H10  1  0.124500  0.144400  0.489000  1.0  0.1208
  H  H11  1  0.241600  0.481900  0.229000  1.0  0.0654
  H  H12  1  0.355600  0.375500  0.489000  1.0  0.1205
  H  H13  1  0.758400  0.518100  0.229000  1.0  0.066
  H  H14  1  0.644400  0.624500  0.489000  1.0  0.1209
  H  H15  1  0.481900  0.758400  0.229000  1.0  0.0652
  H  H16  1  0.375500  0.644400  0.489000  1.0  0.1201
  H  H17  1  0.518100  0.241600  0.229000  1.0  0.0655
  H  H18  1  0.624500  0.355600  0.489000  1.0  0.1211
  C  C19  1  0.717600  0.086500  0.285000  1.0  0.1497
  C  C20  1  0.786600  0.149500  0.441000  1.0  -0.1777
  C  C21  1  0.282400  0.913500  0.285000  1.0  0.1511
  C  C22  1  0.213400  0.850500  0.441000  1.0  -0.1779
  C  C23  1  0.913500  0.717600  0.285000  1.0  0.1516
  C  C24  1  0.850500  0.786600  0.441000  1.0  -0.1825
  C  C25  1  0.086500  0.282400  0.285000  1.0  0.1505
  C  C26  1  0.149500  0.213400  0.441000  1.0  -0.182
  C  C27  1  0.217600  0.413500  0.285000  1.0  0.1506
  C  C28  1  0.286600  0.350500  0.441000  1.0  -0.1788
  C  C29  1  0.782400  0.586500  0.285000  1.0  0.1499
  C  C30  1  0.713400  0.649500  0.441000  1.0  -0.1786
  C  C31  1  0.413500  0.782400  0.285000  1.0  0.1519
  C  C32  1  0.350500  0.713400  0.441000  1.0  -0.183
  C  C33  1  0.586500  0.217600  0.285000  1.0  0.1505
  C  C34  1  0.649500  0.286600  0.441000  1.0  -0.1834
  C  C35  1  0.751000  0.251000  0.524000  1.0  -0.0722
  C  C36  1  0.821700  0.321700  0.672000  1.0  0.3634
  C  C37  1  0.249000  0.749000  0.524000  1.0  -0.0711
  C  C38  1  0.178300  0.678300  0.672000  1.0  0.3649
  C  C39  1  0.749000  0.751000  0.524000  1.0  -0.0712
  C  C40  1  0.678300  0.821700  0.672000  1.0  0.3648
  C  C41  1  0.251000  0.249000  0.524000  1.0  -0.0719
  C  C42  1  0.321700  0.178300  0.672000  1.0  0.3635
  N  N43  1  0.617900  0.117900  0.210000  1.0  -0.3258
  N  N44  1  0.878900  0.378900  0.783000  1.0  -0.4759
  N  N45  1  0.382100  0.882100  0.210000  1.0  -0.3264
  N  N46  1  0.121100  0.621100  0.783000  1.0  -0.4744
  N  N47  1  0.882100  0.617900  0.210000  1.0  -0.3258
  N  N48  1  0.621100  0.878900  0.783000  1.0  -0.4753
  N  N49  1  0.117900  0.382100  0.210000  1.0  -0.3248
  N  N50  1  0.378900  0.121100  0.783000  1.0  -0.4748
