# generated using pymatgen
data_CoPH12(C3O2)3
_symmetry_space_group_name_H-M   'P 1'
_cell_length_a   11.43100000
_cell_length_b   11.43100000
_cell_length_c   46.60000000
_cell_angle_alpha   90.00000000
_cell_angle_beta   90.00000000
_cell_angle_gamma   120.00000000
_symmetry_Int_Tables_number   1
_chemical_formula_structural   CoPH12(C3O2)3
_chemical_formula_sum   'Co12 P12 H144 C108 O72'
_cell_volume   5273.33058244
_cell_formula_units_Z   12
loop_
 _symmetry_equiv_pos_site_id
 _symmetry_equiv_pos_as_xyz
  1  'x, y, z'
loop_
 _atom_site_type_symbol
 _atom_site_label
 _atom_site_symmetry_multiplicity
 _atom_site_fract_x
 _atom_site_fract_y
 _atom_site_fract_z
 _atom_site_occupancy
 _atom_site_charge
  Co  Co1  1  0.010010  0.999390  0.000000  1.0  0.9119
  Co  Co2  1  0.340680  0.659790  0.920760  1.0  0.9305
  Co  Co3  1  0.989380  0.989990  0.666667  1.0  0.9124
  Co  Co4  1  0.319110  0.659320  0.587430  1.0  0.9304
  Co  Co5  1  0.000610  0.010620  0.333333  1.0  0.912
  Co  Co6  1  0.340210  0.680890  0.254090  1.0  0.9316
  Co  Co7  1  0.989990  0.000610  0.500000  1.0  0.912
  Co  Co8  1  0.659320  0.340210  0.420760  1.0  0.93
  Co  Co9  1  0.010620  0.010010  0.166670  1.0  0.9149
  Co  Co10  1  0.680890  0.340680  0.087430  1.0  0.9314
  Co  Co11  1  0.999390  0.989380  0.833330  1.0  0.9122
  Co  Co12  1  0.659790  0.319110  0.754090  1.0  0.9304
  P  P13  1  0.010600  0.001700  0.948730  1.0  0.5887
  P  P14  1  0.332200  0.652100  0.869410  1.0  0.6079
  P  P15  1  0.991100  0.989400  0.615400  1.0  0.5884
  P  P16  1  0.319900  0.667800  0.536080  1.0  0.6086
  P  P17  1  0.998300  0.008900  0.282060  1.0  0.5883
  P  P18  1  0.347900  0.680100  0.202740  1.0  0.6078
  P  P19  1  0.989400  0.998300  0.448730  1.0  0.5882
  P  P20  1  0.667800  0.347900  0.369410  1.0  0.608
  P  P21  1  0.008900  0.010600  0.115400  1.0  0.5883
  P  P22  1  0.680100  0.332200  0.036080  1.0  0.6078
  P  P23  1  0.001700  0.991100  0.782060  1.0  0.5884
  P  P24  1  0.652100  0.319900  0.702740  1.0  0.6084
  H  H25  1  0.805400  0.980500  0.934300  1.0  0.1497
  H  H26  1  0.852000  0.910300  0.911800  1.0  0.1642
  H  H27  1  0.783800  0.725100  0.943900  1.0  0.1259
  H  H28  1  0.732000  0.794700  0.965500  1.0  0.1246
  H  H29  1  0.025800  0.817700  0.931200  1.0  0.1455
  H  H30  1  0.111900  0.944600  0.911800  1.0  0.1603
  H  H31  1  0.283100  0.036500  0.948000  1.0  0.1327
  H  H32  1  0.197200  0.908100  0.967000  1.0  0.1317
  H  H33  1  0.193800  0.205500  0.933300  1.0  0.1516
  H  H34  1  0.072500  0.161400  0.912100  1.0  0.1515
  H  H35  1  0.968200  0.237500  0.944000  1.0  0.1277
  H  H36  1  0.082200  0.273300  0.966700  1.0  0.1322
  H  H37  1  0.124700  0.461300  0.860700  1.0  0.1498
  H  H38  1  0.213900  0.500300  0.833000  1.0  0.1409
  H  H39  1  0.248100  0.368400  0.880400  1.0  0.1333
  H  H40  1  0.335700  0.406100  0.852400  1.0  0.1154
  H  H41  1  0.520900  0.632600  0.858700  1.0  0.1401
  H  H42  1  0.475000  0.678000  0.831200  1.0  0.139
  H  H43  1  0.610300  0.854700  0.877300  1.0  0.1238
  H  H44  1  0.573900  0.897800  0.848200  1.0  0.1046
  H  H45  1  0.353400  0.858400  0.856700  1.0  0.1561
  H  H46  1  0.297000  0.758600  0.830700  1.0  0.1422
  H  H47  1  0.081000  0.649500  0.851100  1.0  0.1214
  H  H48  1  0.135800  0.741500  0.878400  1.0  0.1331
  H  H49  1  0.175100  0.194600  0.600970  1.0  0.1509
  H  H50  1  0.058300  0.148000  0.578470  1.0  0.1634
  H  H51  1  0.941300  0.216200  0.610570  1.0  0.1254
  H  H52  1  0.062700  0.268000  0.632170  1.0  0.1234
  H  H53  1  0.791900  0.974200  0.597870  1.0  0.145
  H  H54  1  0.832700  0.888100  0.578470  1.0  0.1593
  H  H55  1  0.753400  0.716900  0.614670  1.0  0.1297
  H  H56  1  0.710900  0.802800  0.633670  1.0  0.1317
  H  H57  1  0.011700  0.806200  0.599970  1.0  0.1479
  H  H58  1  0.088900  0.927500  0.578770  1.0  0.153
  H  H59  1  0.269300  0.031800  0.610670  1.0  0.1294
  H  H60  1  0.191100  0.917800  0.633370  1.0  0.1328
  H  H61  1  0.336600  0.875300  0.527370  1.0  0.149
  H  H62  1  0.286400  0.786100  0.499670  1.0  0.1404
  H  H63  1  0.120300  0.751900  0.547070  1.0  0.1342
  H  H64  1  0.070400  0.664300  0.519070  1.0  0.1198
  H  H65  1  0.111700  0.479100  0.525370  1.0  0.1392
  H  H66  1  0.203000  0.525000  0.497870  1.0  0.1385
  H  H67  1  0.244400  0.389700  0.543970  1.0  0.1246
  H  H68  1  0.323900  0.426100  0.514870  1.0  0.1046
  H  H69  1  0.505000  0.646600  0.523370  1.0  0.1555
  H  H70  1  0.461600  0.703000  0.497370  1.0  0.142
  H  H71  1  0.568500  0.919000  0.517770  1.0  0.1196
  H  H72  1  0.605700  0.864200  0.545070  1.0  0.1314
  H  H73  1  0.019500  0.824900  0.267630  1.0  0.1498
  H  H74  1  0.089700  0.941700  0.245130  1.0  0.1641
  H  H75  1  0.274900  0.058700  0.277230  1.0  0.1283
  H  H76  1  0.205300  0.937300  0.298830  1.0  0.1239
  H  H77  1  0.182300  0.208100  0.264530  1.0  0.1451
  H  H78  1  0.055400  0.167300  0.245130  1.0  0.1594
  H  H79  1  0.963500  0.246600  0.281330  1.0  0.1253
  H  H80  1  0.091900  0.289100  0.300330  1.0  0.1308
  H  H81  1  0.794500  0.988300  0.266630  1.0  0.1486
  H  H82  1  0.838600  0.911100  0.245430  1.0  0.1524
  H  H83  1  0.762500  0.730700  0.277330  1.0  0.1281
  H  H84  1  0.726700  0.808900  0.300030  1.0  0.1336
  H  H85  1  0.538700  0.663400  0.194030  1.0  0.1498
  H  H86  1  0.499700  0.713600  0.166330  1.0  0.1411
  H  H87  1  0.631600  0.879700  0.213730  1.0  0.1322
  H  H88  1  0.593900  0.929600  0.185730  1.0  0.1181
  H  H89  1  0.367400  0.888300  0.192030  1.0  0.1415
  H  H90  1  0.322000  0.797000  0.164530  1.0  0.1386
  H  H91  1  0.145300  0.755600  0.210630  1.0  0.1253
  H  H92  1  0.102200  0.676100  0.181530  1.0  0.1052
  H  H93  1  0.141600  0.495000  0.190030  1.0  0.1587
  H  H94  1  0.241400  0.538400  0.164030  1.0  0.1418
  H  H95  1  0.350500  0.431500  0.184430  1.0  0.1162
  H  H96  1  0.258500  0.394300  0.211730  1.0  0.1325
  H  H97  1  0.194600  0.019500  0.434300  1.0  0.1511
  H  H98  1  0.148000  0.089700  0.411800  1.0  0.1641
  H  H99  1  0.216200  0.274900  0.443900  1.0  0.1257
  H  H100  1  0.268000  0.205300  0.465500  1.0  0.1235
  H  H101  1  0.974200  0.182300  0.431200  1.0  0.1474
  H  H102  1  0.888100  0.055400  0.411800  1.0  0.1602
  H  H103  1  0.716900  0.963500  0.448000  1.0  0.1326
  H  H104  1  0.802800  0.091900  0.467000  1.0  0.1319
  H  H105  1  0.806200  0.794500  0.433300  1.0  0.1519
  H  H106  1  0.927500  0.838600  0.412100  1.0  0.1518
  H  H107  1  0.031800  0.762500  0.444000  1.0  0.1267
  H  H108  1  0.917800  0.726700  0.466700  1.0  0.1325
  H  H109  1  0.875300  0.538700  0.360700  1.0  0.1504
  H  H110  1  0.786100  0.499700  0.333000  1.0  0.1414
  H  H111  1  0.751900  0.631600  0.380400  1.0  0.1339
  H  H112  1  0.664300  0.593900  0.352400  1.0  0.1152
  H  H113  1  0.479100  0.367400  0.358700  1.0  0.1401
  H  H114  1  0.525000  0.322000  0.331200  1.0  0.1385
  H  H115  1  0.389700  0.145300  0.377300  1.0  0.1248
  H  H116  1  0.426100  0.102200  0.348200  1.0  0.104
  H  H117  1  0.646600  0.141600  0.356700  1.0  0.1562
  H  H118  1  0.703000  0.241400  0.330700  1.0  0.1413
  H  H119  1  0.919000  0.350500  0.351100  1.0  0.1194
  H  H120  1  0.864200  0.258500  0.378400  1.0  0.1328
  H  H121  1  0.824900  0.805400  0.100970  1.0  0.1542
  H  H122  1  0.941700  0.852000  0.078470  1.0  0.1629
  H  H123  1  0.058700  0.783800  0.110570  1.0  0.1247
  H  H124  1  0.937300  0.732000  0.132170  1.0  0.124
  H  H125  1  0.208100  0.025800  0.097870  1.0  0.1458
  H  H126  1  0.167300  0.111900  0.078470  1.0  0.159
  H  H127  1  0.246600  0.283100  0.114670  1.0  0.1301
  H  H128  1  0.289100  0.197200  0.133670  1.0  0.1313
  H  H129  1  0.988300  0.193800  0.099970  1.0  0.1484
  H  H130  1  0.911100  0.072500  0.078770  1.0  0.1528
  H  H131  1  0.730700  0.968200  0.110670  1.0  0.1288
  H  H132  1  0.808900  0.082200  0.133370  1.0  0.1331
  H  H133  1  0.663400  0.124700  0.027370  1.0  0.1511
  H  H134  1  0.713600  0.213900  0.999670  1.0  0.1405
  H  H135  1  0.879700  0.248100  0.047070  1.0  0.133
  H  H136  1  0.929600  0.335700  0.019070  1.0  0.1179
  H  H137  1  0.888300  0.520900  0.025370  1.0  0.1405
  H  H138  1  0.797000  0.475000  0.997870  1.0  0.1392
  H  H139  1  0.755600  0.610300  0.043970  1.0  0.1244
  H  H140  1  0.676100  0.573900  0.014870  1.0  0.1041
  H  H141  1  0.495000  0.353400  0.023370  1.0  0.156
  H  H142  1  0.538400  0.297000  0.997370  1.0  0.1424
  H  H143  1  0.431500  0.081000  0.017770  1.0  0.1207
  H  H144  1  0.394300  0.135800  0.045070  1.0  0.1316
  H  H145  1  0.980500  0.175100  0.767630  1.0  0.1506
  H  H146  1  0.910300  0.058300  0.745130  1.0  0.1645
  H  H147  1  0.725100  0.941300  0.777230  1.0  0.1276
  H  H148  1  0.794700  0.062700  0.798830  1.0  0.1246
  H  H149  1  0.817700  0.791900  0.764530  1.0  0.1462
  H  H150  1  0.944600  0.832700  0.745130  1.0  0.1592
  H  H151  1  0.036500  0.753400  0.781330  1.0  0.1269
  H  H152  1  0.908100  0.710900  0.800330  1.0  0.1319
  H  H153  1  0.205500  0.011700  0.766630  1.0  0.1495
  H  H154  1  0.161400  0.088900  0.745430  1.0  0.1516
  H  H155  1  0.237500  0.269300  0.777330  1.0  0.1272
  H  H156  1  0.273300  0.191100  0.800030  1.0  0.1323
  H  H157  1  0.461300  0.336600  0.694030  1.0  0.1493
  H  H158  1  0.500300  0.286400  0.666330  1.0  0.1405
  H  H159  1  0.368400  0.120300  0.713730  1.0  0.133
  H  H160  1  0.406100  0.070400  0.685730  1.0  0.1185
  H  H161  1  0.632600  0.111700  0.692030  1.0  0.142
  H  H162  1  0.678000  0.203000  0.664530  1.0  0.1384
  H  H163  1  0.854700  0.244400  0.710630  1.0  0.124
  H  H164  1  0.897800  0.323900  0.681530  1.0  0.1039
  H  H165  1  0.858400  0.505000  0.690030  1.0  0.1606
  H  H166  1  0.758600  0.461600  0.664030  1.0  0.142
  H  H167  1  0.649500  0.568500  0.684430  1.0  0.1175
  H  H168  1  0.741500  0.605700  0.711730  1.0  0.1327
  C  C169  1  0.843100  0.921600  0.932200  1.0  -0.3567
  C  C170  1  0.745200  0.783600  0.945300  1.0  -0.2904
  C  C171  1  0.609700  0.718400  0.929900  1.0  0.7531
  C  C172  1  0.089600  0.914000  0.931500  1.0  -0.34
  C  C173  1  0.219400  0.940100  0.947400  1.0  -0.2993
  C  C174  1  0.284800  0.867600  0.932400  1.0  0.7826
  C  C175  1  0.097100  0.169900  0.932300  1.0  -0.3596
  C  C176  1  0.063900  0.269800  0.946300  1.0  -0.3097
  C  C177  1  0.142300  0.409400  0.934200  1.0  0.7881
  C  C178  1  0.214800  0.489400  0.853600  1.0  -0.332
  C  C179  1  0.246400  0.379300  0.859700  1.0  -0.338
  C  C180  1  0.146400  0.245200  0.846700  1.0  0.7448
  C  C181  1  0.490700  0.693000  0.851700  1.0  -0.3171
  C  C182  1  0.600500  0.837300  0.856800  1.0  -0.333
  C  C183  1  0.735300  0.867500  0.844500  1.0  0.7331
  C  C184  1  0.288800  0.766300  0.851200  1.0  -0.3513
  C  C185  1  0.146300  0.739100  0.857800  1.0  -0.3262
  C  C186  1  0.117400  0.841700  0.843800  1.0  0.7438
  C  C187  1  0.078500  0.156900  0.598870  1.0  -0.3581
  C  C188  1  0.038400  0.254800  0.611970  1.0  -0.2887
  C  C189  1  0.108700  0.390300  0.596570  1.0  0.7546
  C  C190  1  0.824400  0.910400  0.598170  1.0  -0.3387
  C  C191  1  0.720700  0.780600  0.614070  1.0  -0.3027
  C  C192  1  0.582800  0.715200  0.599070  1.0  0.7831
  C  C193  1  0.072800  0.902900  0.598970  1.0  -0.3583
  C  C194  1  0.205900  0.936100  0.612970  1.0  -0.3079
  C  C195  1  0.267100  0.857700  0.600870  1.0  0.7862
  C  C196  1  0.274600  0.785200  0.520270  1.0  -0.3343
  C  C197  1  0.132900  0.753600  0.526370  1.0  -0.3386
  C  C198  1  0.098800  0.853600  0.513370  1.0  0.745
  C  C199  1  0.202300  0.509300  0.518370  1.0  -0.3164
  C  C200  1  0.236800  0.399500  0.523470  1.0  -0.3289
  C  C201  1  0.132200  0.264700  0.511170  1.0  0.7336
  C  C202  1  0.477500  0.711200  0.517870  1.0  -0.3497
  C  C203  1  0.592800  0.853700  0.524470  1.0  -0.3274
  C  C204  1  0.724300  0.882600  0.510470  1.0  0.7426
  C  C205  1  0.078400  0.921500  0.265530  1.0  -0.3572
  C  C206  1  0.216400  0.961600  0.278630  1.0  -0.2871
  C  C207  1  0.281600  0.891300  0.263230  1.0  0.7529
  C  C208  1  0.086000  0.175600  0.264830  1.0  -0.3402
  C  C209  1  0.059900  0.279300  0.280730  1.0  -0.3023
  C  C210  1  0.132400  0.417200  0.265730  1.0  0.7853
  C  C211  1  0.830100  0.927200  0.265630  1.0  -0.3581
  C  C212  1  0.730200  0.794100  0.279630  1.0  -0.311
  C  C213  1  0.590600  0.732900  0.267530  1.0  0.7883
  C  C214  1  0.510600  0.725400  0.186930  1.0  -0.3326
  C  C215  1  0.620700  0.867100  0.193030  1.0  -0.3415
  C  C216  1  0.754800  0.901200  0.180030  1.0  0.7447
  C  C217  1  0.307000  0.797700  0.185030  1.0  -0.3201
  C  C218  1  0.162700  0.763200  0.190130  1.0  -0.331
  C  C219  1  0.132500  0.867800  0.177830  1.0  0.7353
  C  C220  1  0.233700  0.522500  0.184530  1.0  -0.3479
  C  C221  1  0.260900  0.407200  0.191130  1.0  -0.3237
  C  C222  1  0.158300  0.275700  0.177130  1.0  0.744
  C  C223  1  0.156900  0.078400  0.432200  1.0  -0.3567
  C  C224  1  0.254800  0.216400  0.445300  1.0  -0.2909
  C  C225  1  0.390300  0.281600  0.429900  1.0  0.7518
  C  C226  1  0.910400  0.086000  0.431500  1.0  -0.3392
  C  C227  1  0.780600  0.059900  0.447400  1.0  -0.3005
  C  C228  1  0.715200  0.132400  0.432400  1.0  0.7859
  C  C229  1  0.902900  0.830100  0.432300  1.0  -0.36
  C  C230  1  0.936100  0.730200  0.446300  1.0  -0.3106
  C  C231  1  0.857700  0.590600  0.434200  1.0  0.7899
  C  C232  1  0.785200  0.510600  0.353600  1.0  -0.3319
  C  C233  1  0.753600  0.620700  0.359700  1.0  -0.3376
  C  C234  1  0.853600  0.754800  0.346700  1.0  0.7456
  C  C235  1  0.509300  0.307000  0.351700  1.0  -0.3175
  C  C236  1  0.399500  0.162700  0.356800  1.0  -0.3311
  C  C237  1  0.264700  0.132500  0.344500  1.0  0.7323
  C  C238  1  0.711200  0.233700  0.351200  1.0  -0.3525
  C  C239  1  0.853700  0.260900  0.357800  1.0  -0.3237
  C  C240  1  0.882600  0.158300  0.343800  1.0  0.7439
  C  C241  1  0.921500  0.843100  0.098870  1.0  -0.358
  C  C242  1  0.961600  0.745200  0.111970  1.0  -0.2891
  C  C243  1  0.891300  0.609700  0.096570  1.0  0.7531
  C  C244  1  0.175600  0.089600  0.098170  1.0  -0.3397
  C  C245  1  0.279300  0.219400  0.114070  1.0  -0.3048
  C  C246  1  0.417200  0.284800  0.099070  1.0  0.7824
  C  C247  1  0.927200  0.097100  0.098970  1.0  -0.3578
  C  C248  1  0.794100  0.063900  0.112970  1.0  -0.3062
  C  C249  1  0.732900  0.142300  0.100870  1.0  0.7883
  C  C250  1  0.725400  0.214800  0.020270  1.0  -0.3362
  C  C251  1  0.867100  0.246400  0.026370  1.0  -0.3374
  C  C252  1  0.901200  0.146400  0.013370  1.0  0.7455
  C  C253  1  0.797700  0.490700  0.018370  1.0  -0.3163
  C  C254  1  0.763200  0.600500  0.023470  1.0  -0.33
  C  C255  1  0.867800  0.735300  0.011170  1.0  0.7346
  C  C256  1  0.522500  0.288800  0.017870  1.0  -0.3487
  C  C257  1  0.407200  0.146300  0.024470  1.0  -0.3265
  C  C258  1  0.275700  0.117400  0.010470  1.0  0.7422
  C  C259  1  0.921600  0.078500  0.765530  1.0  -0.3572
  C  C260  1  0.783600  0.038400  0.778630  1.0  -0.2884
  C  C261  1  0.718400  0.108700  0.763230  1.0  0.7554
  C  C262  1  0.914000  0.824400  0.764830  1.0  -0.34
  C  C263  1  0.940100  0.720700  0.780730  1.0  -0.3009
  C  C264  1  0.867600  0.582800  0.765730  1.0  0.7844
  C  C265  1  0.169900  0.072800  0.765630  1.0  -0.3596
  C  C266  1  0.269800  0.205900  0.779630  1.0  -0.3138
  C  C267  1  0.409400  0.267100  0.767530  1.0  0.7874
  C  C268  1  0.489400  0.274600  0.686930  1.0  -0.3331
  C  C269  1  0.379300  0.132900  0.693030  1.0  -0.3401
  C  C270  1  0.245200  0.098800  0.680030  1.0  0.7441
  C  C271  1  0.693000  0.202300  0.685030  1.0  -0.3225
  C  C272  1  0.837300  0.236800  0.690130  1.0  -0.3285
  C  C273  1  0.867500  0.132200  0.677830  1.0  0.7343
  C  C274  1  0.766300  0.477500  0.684530  1.0  -0.3485
  C  C275  1  0.739100  0.592800  0.691130  1.0  -0.3241
  C  C276  1  0.841700  0.724300  0.677130  1.0  0.7446
  O  O277  1  0.525300  0.755500  0.937900  1.0  -0.5887
  O  O278  1  0.583200  0.635000  0.911000  1.0  -0.5431
  O  O279  1  0.256100  0.751300  0.942100  1.0  -0.5788
  O  O280  1  0.361600  0.920200  0.911800  1.0  -0.5302
  O  O281  1  0.269500  0.477300  0.938400  1.0  -0.6021
  O  O282  1  0.087300  0.460700  0.920400  1.0  -0.5612
  O  O283  1  0.155900  0.142900  0.854100  1.0  -0.5749
  O  O284  1  0.057200  0.233700  0.830000  1.0  -0.588
  O  O285  1  0.837400  0.976900  0.853300  1.0  -0.5856
  O  O286  1  0.746400  0.794800  0.826700  1.0  -0.5881
  O  O287  1  0.012500  0.841900  0.853000  1.0  -0.5802
  O  O288  1  0.187800  0.917200  0.824200  1.0  -0.6085
  O  O289  1  0.230200  0.474700  0.604570  1.0  -0.5884
  O  O290  1  0.051800  0.416800  0.577670  1.0  -0.5446
  O  O291  1  0.495200  0.743900  0.608770  1.0  -0.5787
  O  O292  1  0.558600  0.638400  0.578470  1.0  -0.5298
  O  O293  1  0.207800  0.730500  0.605070  1.0  -0.6019
  O  O294  1  0.373400  0.912700  0.587070  1.0  -0.5624
  O  O295  1  0.987000  0.844100  0.520770  1.0  -0.5768
  O  O296  1  0.176500  0.942800  0.496670  1.0  -0.5877
  O  O297  1  0.139500  0.162600  0.519970  1.0  -0.5826
  O  O298  1  0.048400  0.253600  0.493370  1.0  -0.5879
  O  O299  1  0.829400  0.987500  0.519670  1.0  -0.5832
  O  O300  1  0.729400  0.812200  0.490870  1.0  -0.6083
  O  O301  1  0.244500  0.769800  0.271230  1.0  -0.5892
  O  O302  1  0.365000  0.948200  0.244330  1.0  -0.5446
  O  O303  1  0.248700  0.504800  0.275430  1.0  -0.5783
  O  O304  1  0.079800  0.441400  0.245130  1.0  -0.5268
  O  O305  1  0.522700  0.792200  0.271730  1.0  -0.6027
  O  O306  1  0.539300  0.626600  0.253730  1.0  -0.5634
  O  O307  1  0.857100  0.013000  0.187430  1.0  -0.5763
  O  O308  1  0.766300  0.823500  0.163330  1.0  -0.5899
  O  O309  1  0.023100  0.860500  0.186630  1.0  -0.5823
  O  O310  1  0.205200  0.951600  0.160030  1.0  -0.5875
  O  O311  1  0.158100  0.170600  0.186330  1.0  -0.5805
  O  O312  1  0.082800  0.270600  0.157530  1.0  -0.608
  O  O313  1  0.474700  0.244500  0.437900  1.0  -0.5863
  O  O314  1  0.416800  0.365000  0.411000  1.0  -0.5433
  O  O315  1  0.743900  0.248700  0.442100  1.0  -0.5792
  O  O316  1  0.638400  0.079800  0.411800  1.0  -0.5318
  O  O317  1  0.730500  0.522700  0.438400  1.0  -0.6026
  O  O318  1  0.912700  0.539300  0.420400  1.0  -0.5601
  O  O319  1  0.844100  0.857100  0.354100  1.0  -0.5762
  O  O320  1  0.942800  0.766300  0.330000  1.0  -0.5889
  O  O321  1  0.162600  0.023100  0.353300  1.0  -0.5822
  O  O322  1  0.253600  0.205200  0.326700  1.0  -0.5862
  O  O323  1  0.987500  0.158100  0.353000  1.0  -0.5814
  O  O324  1  0.812200  0.082800  0.324200  1.0  -0.6093
  O  O325  1  0.769800  0.525300  0.104570  1.0  -0.5891
  O  O326  1  0.948200  0.583200  0.077670  1.0  -0.5448
  O  O327  1  0.504800  0.256100  0.108770  1.0  -0.5777
  O  O328  1  0.441400  0.361600  0.078470  1.0  -0.5288
  O  O329  1  0.792200  0.269500  0.105070  1.0  -0.6024
  O  O330  1  0.626600  0.087300  0.087070  1.0  -0.5647
  O  O331  1  0.013000  0.155900  0.020770  1.0  -0.5756
  O  O332  1  0.823500  0.057200  0.996670  1.0  -0.5898
  O  O333  1  0.860500  0.837400  0.019970  1.0  -0.5824
  O  O334  1  0.951600  0.746400  0.993370  1.0  -0.5885
  O  O335  1  0.170600  0.012500  0.019670  1.0  -0.5811
  O  O336  1  0.270600  0.187800  0.990870  1.0  -0.6062
  O  O337  1  0.755500  0.230200  0.771230  1.0  -0.5895
  O  O338  1  0.635000  0.051800  0.744330  1.0  -0.5447
  O  O339  1  0.751300  0.495200  0.775430  1.0  -0.5785
  O  O340  1  0.920200  0.558600  0.745130  1.0  -0.5275
  O  O341  1  0.477300  0.207800  0.771730  1.0  -0.6019
  O  O342  1  0.460700  0.373400  0.753730  1.0  -0.5629
  O  O343  1  0.142900  0.987000  0.687430  1.0  -0.5742
  O  O344  1  0.233700  0.176500  0.663330  1.0  -0.5876
  O  O345  1  0.976900  0.139500  0.686630  1.0  -0.5816
  O  O346  1  0.794800  0.048400  0.660030  1.0  -0.5884
  O  O347  1  0.841900  0.829400  0.686330  1.0  -0.5814
  O  O348  1  0.917200  0.729400  0.657530  1.0  -0.6095
