# generated using pymatgen
data_ZnH8C6N8O
_symmetry_space_group_name_H-M   'P 1'
_cell_length_a   13.04780000
_cell_length_b   15.06930000
_cell_length_c   15.06930000
_cell_angle_alpha   67.97260000
_cell_angle_beta   73.22480000
_cell_angle_gamma   106.77500000
_symmetry_Int_Tables_number   1
_chemical_formula_structural   ZnH8C6N8O
_chemical_formula_sum   'Zn6 H48 C36 N48 O6'
_cell_volume   2352.24328601
_cell_formula_units_Z   6
loop_
 _symmetry_equiv_pos_site_id
 _symmetry_equiv_pos_as_xyz
  1  'x, y, z'
loop_
 _atom_site_type_symbol
 _atom_site_label
 _atom_site_symmetry_multiplicity
 _atom_site_fract_x
 _atom_site_fract_y
 _atom_site_fract_z
 _atom_site_occupancy
 _atom_site_charge
  Zn  Zn1  1  0.969870  0.714490  0.808810  1.0  0.7535
  Zn  Zn2  1  0.778680  0.808810  0.476700  1.0  0.7546
  Zn  Zn3  1  0.255380  0.476700  0.714490  1.0  0.7544
  Zn  Zn4  1  0.030130  0.285510  0.191190  1.0  0.7563
  Zn  Zn5  1  0.221320  0.191190  0.523300  1.0  0.7559
  Zn  Zn6  1  0.744620  0.523300  0.285510  1.0  0.7562
  H  H7  1  0.265600  0.752900  0.725300  1.0  0.1302
  H  H8  1  0.300400  0.658200  0.757200  1.0  0.1164
  H  H9  1  0.157300  0.581600  0.939500  1.0  0.0531
  H  H10  1  0.263100  0.692700  0.897600  1.0  0.062
  H  H11  1  0.154800  0.742000  0.007200  1.0  0.0648
  H  H12  1  0.056200  0.623100  0.065300  1.0  0.0602
  H  H13  1  0.971400  0.733500  0.098600  1.0  0.1193
  H  H14  1  0.014800  0.803700  0.975300  1.0  0.1256
  H  H15  1  0.990900  0.725300  0.521800  1.0  0.1293
  H  H16  1  0.057600  0.757200  0.584600  1.0  0.1155
  H  H17  1  0.096800  0.939500  0.478900  1.0  0.0526
  H  H18  1  0.160700  0.897600  0.409700  1.0  0.0614
  H  H19  1  0.162000  0.007200  0.250800  1.0  0.0616
  H  H20  1  0.121500  0.065300  0.311600  1.0  0.0612
  H  H21  1  0.070000  0.098600  0.167900  1.0  0.1208
  H  H22  1  0.990100  0.975300  0.221000  1.0  0.1255
  H  H23  1  0.512700  0.521800  0.752900  1.0  0.1306
  H  H24  1  0.642200  0.584600  0.658200  1.0  0.1148
  H  H25  1  0.575700  0.478900  0.581600  1.0  0.0521
  H  H26  1  0.570400  0.409700  0.692700  1.0  0.0608
  H  H27  1  0.412800  0.250800  0.742000  1.0  0.0635
  H  H28  1  0.433100  0.311600  0.623100  1.0  0.0589
  H  H29  1  0.237900  0.167900  0.733500  1.0  0.1248
  H  H30  1  0.211100  0.221000  0.803700  1.0  0.1267
  H  H31  1  0.734400  0.247100  0.274700  1.0  0.1295
  H  H32  1  0.699600  0.341800  0.242800  1.0  0.1147
  H  H33  1  0.842700  0.418400  0.060500  1.0  0.0586
  H  H34  1  0.736900  0.307300  0.102400  1.0  0.0621
  H  H35  1  0.845200  0.258000  0.992800  1.0  0.0633
  H  H36  1  0.943800  0.376900  0.934700  1.0  0.0585
  H  H37  1  0.028600  0.266500  0.901400  1.0  0.1186
  H  H38  1  0.985200  0.196300  0.024700  1.0  0.1262
  H  H39  1  0.009100  0.274700  0.478200  1.0  0.1289
  H  H40  1  0.942400  0.242800  0.415400  1.0  0.1166
  H  H41  1  0.903200  0.060500  0.521100  1.0  0.052
  H  H42  1  0.839300  0.102400  0.590300  1.0  0.0629
  H  H43  1  0.838000  0.992800  0.749200  1.0  0.0632
  H  H44  1  0.878500  0.934700  0.688400  1.0  0.0585
  H  H45  1  0.930000  0.901400  0.832100  1.0  0.1215
  H  H46  1  0.009900  0.024700  0.779000  1.0  0.1272
  H  H47  1  0.487300  0.478200  0.247100  1.0  0.1295
  H  H48  1  0.357800  0.415400  0.341800  1.0  0.1141
  H  H49  1  0.424300  0.521100  0.418400  1.0  0.0514
  H  H50  1  0.429600  0.590300  0.307300  1.0  0.0602
  H  H51  1  0.587200  0.749200  0.258000  1.0  0.0643
  H  H52  1  0.566900  0.688400  0.376900  1.0  0.0596
  H  H53  1  0.762100  0.832100  0.266500  1.0  0.1211
  H  H54  1  0.788900  0.779000  0.196300  1.0  0.1272
  C  C55  1  0.136400  0.613800  0.759000  1.0  0.374
  C  C56  1  0.235300  0.677300  0.774500  1.0  -0.2993
  C  C57  1  0.194700  0.657800  0.888800  1.0  0.155
  C  C58  1  0.083800  0.695500  0.009300  1.0  0.1542
  C  C59  1  0.987100  0.731800  0.032400  1.0  -0.3085
  C  C60  1  0.874000  0.658600  0.042000  1.0  0.3668
  C  C61  1  0.895400  0.759000  0.627200  1.0  0.3742
  C  C62  1  0.009800  0.774500  0.548200  1.0  -0.2979
  C  C63  1  0.083500  0.888800  0.453400  1.0  0.1559
  C  C64  1  0.093100  0.009300  0.295200  1.0  0.1528
  C  C65  1  0.019500  0.032400  0.235800  1.0  -0.3069
  C  C66  1  0.916000  0.042000  0.299400  1.0  0.363
  C  C67  1  0.522600  0.627200  0.613800  1.0  0.3749
  C  C68  1  0.558000  0.548200  0.677300  1.0  -0.3018
  C  C69  1  0.536900  0.453400  0.657800  1.0  0.1585
  C  C70  1  0.388300  0.295200  0.695500  1.0  0.1535
  C  C71  1  0.255300  0.235800  0.731800  1.0  -0.3053
  C  C72  1  0.215400  0.299400  0.658600  1.0  0.367
  C  C73  1  0.863600  0.386200  0.241000  1.0  0.3751
  C  C74  1  0.764700  0.322700  0.225500  1.0  -0.3001
  C  C75  1  0.805300  0.342200  0.111200  1.0  0.1569
  C  C76  1  0.916200  0.304500  0.990700  1.0  0.1536
  C  C77  1  0.012900  0.268200  0.967600  1.0  -0.3072
  C  C78  1  0.126000  0.341400  0.958000  1.0  0.3657
  C  C79  1  0.104600  0.241000  0.372800  1.0  0.3723
  C  C80  1  0.990200  0.225500  0.451800  1.0  -0.295
  C  C81  1  0.916500  0.111200  0.546600  1.0  0.1567
  C  C82  1  0.906900  0.990700  0.704800  1.0  0.1504
  C  C83  1  0.980500  0.967600  0.764200  1.0  -0.3069
  C  C84  1  0.084000  0.958000  0.700600  1.0  0.363
  C  C85  1  0.477400  0.372800  0.386200  1.0  0.3744
  C  C86  1  0.442000  0.451800  0.322700  1.0  -0.3025
  C  C87  1  0.463100  0.546600  0.342200  1.0  0.1582
  C  C88  1  0.611700  0.704800  0.304500  1.0  0.1532
  C  C89  1  0.744700  0.764200  0.268200  1.0  -0.306
  C  C90  1  0.784600  0.700600  0.341400  1.0  0.3654
  N  N91  1  0.033600  0.621200  0.773300  1.0  -0.3048
  N  N92  1  0.970600  0.549900  0.750600  1.0  -0.0993
  N  N93  1  0.031500  0.502300  0.724900  1.0  -0.0922
  N  N94  1  0.137720  0.541440  0.729180  1.0  -0.2944
  N  N95  1  0.858800  0.653100  0.960600  1.0  -0.3046
  N  N96  1  0.746100  0.574400  0.002800  1.0  -0.0759
  N  N97  1  0.697000  0.535700  0.104800  1.0  -0.0615
  N  N98  1  0.775750  0.588850  0.131400  1.0  -0.3144
  N  N99  1  0.806900  0.773300  0.605500  1.0  -0.3016
  N  N100  1  0.721200  0.750600  0.699500  1.0  -0.1014
  N  N101  1  0.756400  0.724900  0.772800  1.0  -0.0941
  N  N102  1  0.866900  0.729180  0.729380  1.0  -0.2966
  N  N103  1  0.819400  0.960600  0.386300  1.0  -0.3085
  N  N104  1  0.748900  0.002800  0.422800  1.0  -0.0815
  N  N105  1  0.801800  0.104800  0.359500  1.0  -0.0631
  N  N106  1  0.907150  0.131400  0.279750  1.0  -0.3146
  N  N107  1  0.412400  0.605500  0.621200  1.0  -0.3037
  N  N108  1  0.420700  0.699500  0.549900  1.0  -0.1014
  N  N109  1  0.529200  0.772800  0.502300  1.0  -0.0941
  N  N110  1  0.596280  0.729380  0.541440  1.0  -0.2962
  N  N111  1  0.205700  0.386300  0.653100  1.0  -0.3064
  N  N112  1  0.171700  0.422800  0.574400  1.0  -0.0802
  N  N113  1  0.161300  0.359500  0.535700  1.0  -0.0613
  N  N114  1  0.186900  0.279750  0.588850  1.0  -0.3158
  N  N115  1  0.966400  0.378800  0.226700  1.0  -0.3024
  N  N116  1  0.029400  0.450100  0.249400  1.0  -0.1024
  N  N117  1  0.968500  0.497700  0.275100  1.0  -0.0931
  N  N118  1  0.862280  0.458560  0.270820  1.0  -0.2956
  N  N119  1  0.141200  0.346900  0.039400  1.0  -0.3045
  N  N120  1  0.253900  0.425600  0.997200  1.0  -0.0768
  N  N121  1  0.303000  0.464300  0.895200  1.0  -0.063
  N  N122  1  0.224250  0.411150  0.868600  1.0  -0.3157
  N  N123  1  0.193100  0.226700  0.394500  1.0  -0.3012
  N  N124  1  0.278800  0.249400  0.300500  1.0  -0.104
  N  N125  1  0.243600  0.275100  0.227200  1.0  -0.0957
  N  N126  1  0.133100  0.270820  0.270620  1.0  -0.2974
  N  N127  1  0.180600  0.039400  0.613700  1.0  -0.3081
  N  N128  1  0.251100  0.997200  0.577200  1.0  -0.0834
  N  N129  1  0.198200  0.895200  0.640500  1.0  -0.0652
  N  N130  1  0.092850  0.868600  0.720250  1.0  -0.3161
  N  N131  1  0.587600  0.394500  0.378800  1.0  -0.3035
  N  N132  1  0.579300  0.300500  0.450100  1.0  -0.1022
  N  N133  1  0.470800  0.227200  0.497700  1.0  -0.0932
  N  N134  1  0.403720  0.270620  0.458560  1.0  -0.2963
  N  N135  1  0.794300  0.613700  0.346900  1.0  -0.3053
  N  N136  1  0.828300  0.577200  0.425600  1.0  -0.0816
  N  N137  1  0.838700  0.640500  0.464300  1.0  -0.0627
  N  N138  1  0.813100  0.720250  0.411150  1.0  -0.3175
  O  O139  1  0.111890  0.699710  0.908540  1.0  -0.369
  O  O140  1  0.020430  0.908540  0.391750  1.0  -0.3693
  O  O141  1  0.412180  0.391750  0.699710  1.0  -0.3709
  O  O142  1  0.888110  0.300290  0.091460  1.0  -0.368
  O  O143  1  0.979570  0.091460  0.608250  1.0  -0.3687
  O  O144  1  0.587820  0.608250  0.300290  1.0  -0.369
