# generated using pymatgen
data_CoMoH20C24(N2O)2
_symmetry_space_group_name_H-M   'P 1'
_cell_length_a   13.68220000
_cell_length_b   13.68220000
_cell_length_c   13.68220000
_cell_angle_alpha   102.35300000
_cell_angle_beta   102.35300000
_cell_angle_gamma   102.35300000
_symmetry_Int_Tables_number   1
_chemical_formula_structural   CoMoH20C24(N2O)2
_chemical_formula_sum   'Co3 Mo3 H60 C72 N12 O6'
_cell_volume   2351.85728092
_cell_formula_units_Z   3
loop_
 _symmetry_equiv_pos_site_id
 _symmetry_equiv_pos_as_xyz
  1  'x, y, z'
loop_
 _atom_site_type_symbol
 _atom_site_label
 _atom_site_symmetry_multiplicity
 _atom_site_fract_x
 _atom_site_fract_y
 _atom_site_fract_z
 _atom_site_occupancy
 _atom_site_charge
  Co  Co1  1  0.882920  0.500000  0.117080  1.0  0.6261
  Co  Co2  1  0.117080  0.882920  0.500000  1.0  0.6261
  Co  Co3  1  0.500000  0.117080  0.882920  1.0  0.6251
  Mo  Mo4  1  0.792790  0.207210  0.000000  1.0  0.4701
  Mo  Mo5  1  0.000000  0.792790  0.207210  1.0  0.4713
  Mo  Mo6  1  0.207210  0.000000  0.792790  1.0  0.4672
  H  H7  1  0.881600  0.336600  0.248300  1.0  0.046
  H  H8  1  0.865600  0.317500  0.407300  1.0  0.1265
  H  H9  1  0.860400  0.616500  0.487000  1.0  0.112
  H  H10  1  0.879300  0.628100  0.327200  1.0  0.0753
  H  H11  1  0.857500  0.389200  0.581900  1.0  0.0985
  H  H12  1  0.851200  0.592600  0.636200  1.0  0.0972
  H  H13  1  0.823500  0.655700  0.806300  1.0  0.1255
  H  H14  1  0.835200  0.644300  0.973700  1.0  0.0516
  H  H15  1  0.901000  0.378300  0.910800  1.0  0.0551
  H  H16  1  0.889600  0.380400  0.741900  1.0  0.1226
  H  H17  1  0.248300  0.881600  0.336600  1.0  0.0459
  H  H18  1  0.407300  0.865600  0.317500  1.0  0.127
  H  H19  1  0.487000  0.860400  0.616500  1.0  0.1121
  H  H20  1  0.327200  0.879300  0.628100  1.0  0.0751
  H  H21  1  0.581900  0.857500  0.389200  1.0  0.0972
  H  H22  1  0.636200  0.851200  0.592600  1.0  0.0969
  H  H23  1  0.806300  0.823500  0.655700  1.0  0.1248
  H  H24  1  0.973700  0.835200  0.644300  1.0  0.0522
  H  H25  1  0.910800  0.901000  0.378300  1.0  0.0559
  H  H26  1  0.741900  0.889600  0.380400  1.0  0.123
  H  H27  1  0.336600  0.248300  0.881600  1.0  0.0457
  H  H28  1  0.317500  0.407300  0.865600  1.0  0.1264
  H  H29  1  0.616500  0.487000  0.860400  1.0  0.1123
  H  H30  1  0.628100  0.327200  0.879300  1.0  0.0754
  H  H31  1  0.389200  0.581900  0.857500  1.0  0.0985
  H  H32  1  0.592600  0.636200  0.851200  1.0  0.0965
  H  H33  1  0.655700  0.806300  0.823500  1.0  0.1268
  H  H34  1  0.644300  0.973700  0.835200  1.0  0.0544
  H  H35  1  0.378300  0.910800  0.901000  1.0  0.0561
  H  H36  1  0.380400  0.741900  0.889600  1.0  0.1224
  H  H37  1  0.663400  0.118400  0.751700  1.0  0.047
  H  H38  1  0.682500  0.134400  0.592700  1.0  0.1263
  H  H39  1  0.383500  0.139600  0.513000  1.0  0.1124
  H  H40  1  0.371900  0.120700  0.672800  1.0  0.0746
  H  H41  1  0.610800  0.142500  0.418100  1.0  0.0973
  H  H42  1  0.407400  0.148800  0.363800  1.0  0.0968
  H  H43  1  0.344300  0.176500  0.193700  1.0  0.1264
  H  H44  1  0.355700  0.164800  0.026300  1.0  0.0518
  H  H45  1  0.621700  0.099000  0.089200  1.0  0.0552
  H  H46  1  0.619600  0.110400  0.258100  1.0  0.1221
  H  H47  1  0.118400  0.751700  0.663400  1.0  0.0459
  H  H48  1  0.134400  0.592700  0.682500  1.0  0.1264
  H  H49  1  0.139600  0.513000  0.383500  1.0  0.1119
  H  H50  1  0.120700  0.672800  0.371900  1.0  0.0757
  H  H51  1  0.142500  0.418100  0.610800  1.0  0.0977
  H  H52  1  0.148800  0.363800  0.407400  1.0  0.0981
  H  H53  1  0.176500  0.193700  0.344300  1.0  0.1247
  H  H54  1  0.164800  0.026300  0.355700  1.0  0.0527
  H  H55  1  0.099000  0.089200  0.621700  1.0  0.0563
  H  H56  1  0.110400  0.258100  0.619600  1.0  0.1229
  H  H57  1  0.751700  0.663400  0.118400  1.0  0.045
  H  H58  1  0.592700  0.682500  0.134400  1.0  0.1265
  H  H59  1  0.513000  0.383500  0.139600  1.0  0.1122
  H  H60  1  0.672800  0.371900  0.120700  1.0  0.0744
  H  H61  1  0.418100  0.610800  0.142500  1.0  0.0991
  H  H62  1  0.363800  0.407400  0.148800  1.0  0.0977
  H  H63  1  0.193700  0.344300  0.176500  1.0  0.1258
  H  H64  1  0.026300  0.355700  0.164800  1.0  0.0528
  H  H65  1  0.089200  0.621700  0.099000  1.0  0.0564
  H  H66  1  0.258100  0.619600  0.110400  1.0  0.1236
  C  C67  1  0.878530  0.394370  0.297820  1.0  0.1596
  C  C68  1  0.868760  0.382140  0.392900  1.0  -0.2309
  C  C69  1  0.863690  0.466120  0.467530  1.0  0.1253
  C  C70  1  0.866090  0.558370  0.439840  1.0  -0.2008
  C  C71  1  0.876770  0.564640  0.343810  1.0  0.1526
  C  C72  1  0.858600  0.454650  0.570550  1.0  -0.1368
  C  C73  1  0.855300  0.528600  0.649000  1.0  -0.1511
  C  C74  1  0.857500  0.518980  0.754520  1.0  0.1345
  C  C75  1  0.840000  0.598100  0.826100  1.0  -0.2377
  C  C76  1  0.847140  0.590470  0.926190  1.0  0.1473
  C  C77  1  0.885200  0.435310  0.889480  1.0  0.1651
  C  C78  1  0.879100  0.436200  0.788100  1.0  -0.2293
  C  C79  1  0.297820  0.878530  0.394370  1.0  0.1605
  C  C80  1  0.392900  0.868760  0.382140  1.0  -0.2309
  C  C81  1  0.467530  0.863690  0.466120  1.0  0.1248
  C  C82  1  0.439840  0.866090  0.558370  1.0  -0.2034
  C  C83  1  0.343810  0.876770  0.564640  1.0  0.1496
  C  C84  1  0.570550  0.858600  0.454650  1.0  -0.1344
  C  C85  1  0.649000  0.855300  0.528600  1.0  -0.1489
  C  C86  1  0.754520  0.857500  0.518980  1.0  0.1342
  C  C87  1  0.826100  0.840000  0.598100  1.0  -0.2387
  C  C88  1  0.926190  0.847140  0.590470  1.0  0.1452
  C  C89  1  0.889480  0.885200  0.435310  1.0  0.1635
  C  C90  1  0.788100  0.879100  0.436200  1.0  -0.2284
  C  C91  1  0.394370  0.297820  0.878530  1.0  0.1599
  C  C92  1  0.382140  0.392900  0.868760  1.0  -0.2323
  C  C93  1  0.466120  0.467530  0.863690  1.0  0.1218
  C  C94  1  0.558370  0.439840  0.866090  1.0  -0.2008
  C  C95  1  0.564640  0.343810  0.876770  1.0  0.1518
  C  C96  1  0.454650  0.570550  0.858600  1.0  -0.1367
  C  C97  1  0.528600  0.649000  0.855300  1.0  -0.1491
  C  C98  1  0.518980  0.754520  0.857500  1.0  0.1314
  C  C99  1  0.598100  0.826100  0.840000  1.0  -0.2378
  C  C100  1  0.590470  0.926190  0.847140  1.0  0.148
  C  C101  1  0.435310  0.889480  0.885200  1.0  0.1634
  C  C102  1  0.436200  0.788100  0.879100  1.0  -0.2279
  C  C103  1  0.605630  0.121470  0.702180  1.0  0.1613
  C  C104  1  0.617860  0.131240  0.607100  1.0  -0.2327
  C  C105  1  0.533880  0.136310  0.532470  1.0  0.1241
  C  C106  1  0.441630  0.133910  0.560160  1.0  -0.2019
  C  C107  1  0.435360  0.123230  0.656190  1.0  0.1539
  C  C108  1  0.545350  0.141400  0.429450  1.0  -0.1354
  C  C109  1  0.471400  0.144700  0.351000  1.0  -0.1486
  C  C110  1  0.481020  0.142500  0.245480  1.0  0.1331
  C  C111  1  0.401900  0.160000  0.173900  1.0  -0.2362
  C  C112  1  0.409530  0.152860  0.073810  1.0  0.1477
  C  C113  1  0.564690  0.114800  0.110520  1.0  0.1671
  C  C114  1  0.563800  0.120900  0.211900  1.0  -0.2256
  C  C115  1  0.121470  0.702180  0.605630  1.0  0.1585
  C  C116  1  0.131240  0.607100  0.617860  1.0  -0.2307
  C  C117  1  0.136310  0.532470  0.533880  1.0  0.1247
  C  C118  1  0.133910  0.560160  0.441630  1.0  -0.2014
  C  C119  1  0.123230  0.656190  0.435360  1.0  0.1509
  C  C120  1  0.141400  0.429450  0.545350  1.0  -0.1343
  C  C121  1  0.144700  0.351000  0.471400  1.0  -0.1491
  C  C122  1  0.142500  0.245480  0.481020  1.0  0.1334
  C  C123  1  0.160000  0.173900  0.401900  1.0  -0.2386
  C  C124  1  0.152860  0.073810  0.409530  1.0  0.1464
  C  C125  1  0.114800  0.110520  0.564690  1.0  0.1639
  C  C126  1  0.120900  0.211900  0.563800  1.0  -0.2297
  C  C127  1  0.702180  0.605630  0.121470  1.0  0.1572
  C  C128  1  0.607100  0.617860  0.131240  1.0  -0.2321
  C  C129  1  0.532470  0.533880  0.136310  1.0  0.1242
  C  C130  1  0.560160  0.441630  0.133910  1.0  -0.2018
  C  C131  1  0.656190  0.435360  0.123230  1.0  0.1531
  C  C132  1  0.429450  0.545350  0.141400  1.0  -0.1384
  C  C133  1  0.351000  0.471400  0.144700  1.0  -0.1502
  C  C134  1  0.245480  0.481020  0.142500  1.0  0.1322
  C  C135  1  0.173900  0.401900  0.160000  1.0  -0.2406
  C  C136  1  0.073810  0.409530  0.152860  1.0  0.1449
  C  C137  1  0.110520  0.564690  0.114800  1.0  0.1632
  C  C138  1  0.211900  0.563800  0.120900  1.0  -0.2286
  N  N139  1  0.869850  0.511020  0.959350  1.0  -0.3088
  N  N140  1  0.883790  0.483800  0.272250  1.0  -0.3239
  N  N141  1  0.959350  0.869850  0.511020  1.0  -0.3071
  N  N142  1  0.272250  0.883790  0.483800  1.0  -0.3251
  N  N143  1  0.511020  0.959350  0.869850  1.0  -0.3091
  N  N144  1  0.483800  0.272250  0.883790  1.0  -0.324
  N  N145  1  0.488980  0.130150  0.040650  1.0  -0.3098
  N  N146  1  0.516200  0.116210  0.727750  1.0  -0.3249
  N  N147  1  0.130150  0.040650  0.488980  1.0  -0.3087
  N  N148  1  0.116210  0.727750  0.516200  1.0  -0.3243
  N  N149  1  0.040650  0.488980  0.130150  1.0  -0.3069
  N  N150  1  0.727750  0.516200  0.116210  1.0  -0.3256
  O  O151  1  0.831250  0.342250  0.061340  1.0  -0.5221
  O  O152  1  0.061340  0.831250  0.342250  1.0  -0.5218
  O  O153  1  0.342250  0.061340  0.831250  1.0  -0.5203
  O  O154  1  0.657750  0.168750  0.938660  1.0  -0.5193
  O  O155  1  0.168750  0.938660  0.657750  1.0  -0.5209
  O  O156  1  0.938660  0.657750  0.168750  1.0  -0.5209
