# generated using pymatgen
data_CrNiH20C24(N2O)2
_symmetry_space_group_name_H-M   'P 1'
_cell_length_a   13.54240000
_cell_length_b   13.54240000
_cell_length_c   13.54240000
_cell_angle_alpha   102.85800000
_cell_angle_beta   102.85800000
_cell_angle_gamma   102.85800000
_symmetry_Int_Tables_number   1
_chemical_formula_structural   CrNiH20C24(N2O)2
_chemical_formula_sum   'Cr3 Ni3 H60 C72 N12 O6'
_cell_volume   2261.86715215
_cell_formula_units_Z   3
loop_
 _symmetry_equiv_pos_site_id
 _symmetry_equiv_pos_as_xyz
  1  'x, y, z'
loop_
 _atom_site_type_symbol
 _atom_site_label
 _atom_site_symmetry_multiplicity
 _atom_site_fract_x
 _atom_site_fract_y
 _atom_site_fract_z
 _atom_site_occupancy
 _atom_site_charge
  Cr  Cr1  1  0.000000  0.210300  0.789700  1.0  0.6234
  Cr  Cr2  1  0.789700  0.000000  0.210300  1.0  0.6341
  Cr  Cr3  1  0.210300  0.789700  0.000000  1.0  0.6379
  Ni  Ni4  1  0.115930  0.500000  0.884070  1.0  0.7031
  Ni  Ni5  1  0.884070  0.115930  0.500000  1.0  0.7023
  Ni  Ni6  1  0.500000  0.884070  0.115930  1.0  0.7035
  H  H7  1  0.118600  0.370100  0.675500  1.0  0.0742
  H  H8  1  0.117400  0.665500  0.758100  1.0  0.0552
  H  H9  1  0.141600  0.381700  0.515500  1.0  0.1148
  H  H10  1  0.149800  0.347800  0.018600  1.0  0.0473
  H  H11  1  0.113300  0.630400  0.092900  1.0  0.0705
  H  H12  1  0.136900  0.685700  0.599000  1.0  0.1228
  H  H13  1  0.126600  0.628200  0.264200  1.0  0.1191
  H  H14  1  0.150400  0.406600  0.364800  1.0  0.0919
  H  H15  1  0.164800  0.337700  0.188000  1.0  0.1214
  H  H16  1  0.149500  0.613900  0.422700  1.0  0.0944
  H  H17  1  0.675500  0.118600  0.370100  1.0  0.0753
  H  H18  1  0.758100  0.117400  0.665500  1.0  0.0545
  H  H19  1  0.515500  0.141600  0.381700  1.0  0.1154
  H  H20  1  0.018600  0.149800  0.347800  1.0  0.0464
  H  H21  1  0.092900  0.113300  0.630400  1.0  0.07
  H  H22  1  0.599000  0.136900  0.685700  1.0  0.1222
  H  H23  1  0.264200  0.126600  0.628200  1.0  0.1201
  H  H24  1  0.364800  0.150400  0.406600  1.0  0.0922
  H  H25  1  0.188000  0.164800  0.337700  1.0  0.1202
  H  H26  1  0.422700  0.149500  0.613900  1.0  0.0931
  H  H27  1  0.370100  0.675500  0.118600  1.0  0.0755
  H  H28  1  0.665500  0.758100  0.117400  1.0  0.0566
  H  H29  1  0.381700  0.515500  0.141600  1.0  0.1157
  H  H30  1  0.347800  0.018600  0.149800  1.0  0.0481
  H  H31  1  0.630400  0.092900  0.113300  1.0  0.071
  H  H32  1  0.685700  0.599000  0.136900  1.0  0.1238
  H  H33  1  0.628200  0.264200  0.126600  1.0  0.1187
  H  H34  1  0.406600  0.364800  0.150400  1.0  0.092
  H  H35  1  0.337700  0.188000  0.164800  1.0  0.1209
  H  H36  1  0.613900  0.422700  0.149500  1.0  0.0925
  H  H37  1  0.629900  0.881400  0.324500  1.0  0.0733
  H  H38  1  0.334500  0.882600  0.241900  1.0  0.0586
  H  H39  1  0.618300  0.858400  0.484500  1.0  0.1155
  H  H40  1  0.652200  0.850200  0.981400  1.0  0.0488
  H  H41  1  0.369600  0.886700  0.907100  1.0  0.0713
  H  H42  1  0.314300  0.863100  0.401000  1.0  0.1232
  H  H43  1  0.371800  0.873400  0.735800  1.0  0.1184
  H  H44  1  0.593400  0.849600  0.635200  1.0  0.0923
  H  H45  1  0.662300  0.835200  0.812000  1.0  0.1212
  H  H46  1  0.386100  0.850500  0.577300  1.0  0.0936
  H  H47  1  0.881400  0.324500  0.629900  1.0  0.0742
  H  H48  1  0.882600  0.241900  0.334500  1.0  0.0548
  H  H49  1  0.858400  0.484500  0.618300  1.0  0.1143
  H  H50  1  0.850200  0.981400  0.652200  1.0  0.0481
  H  H51  1  0.886700  0.907100  0.369600  1.0  0.0715
  H  H52  1  0.863100  0.401000  0.314300  1.0  0.1238
  H  H53  1  0.873400  0.735800  0.371800  1.0  0.1198
  H  H54  1  0.849600  0.635200  0.593400  1.0  0.093
  H  H55  1  0.835200  0.812000  0.662300  1.0  0.12
  H  H56  1  0.850500  0.577300  0.386100  1.0  0.0929
  H  H57  1  0.324500  0.629900  0.881400  1.0  0.0739
  H  H58  1  0.241900  0.334500  0.882600  1.0  0.0569
  H  H59  1  0.484500  0.618300  0.858400  1.0  0.1151
  H  H60  1  0.981400  0.652200  0.850200  1.0  0.047
  H  H61  1  0.907100  0.369600  0.886700  1.0  0.0719
  H  H62  1  0.401000  0.314300  0.863100  1.0  0.1234
  H  H63  1  0.735800  0.371800  0.873400  1.0  0.1205
  H  H64  1  0.635200  0.593400  0.849600  1.0  0.0924
  H  H65  1  0.812000  0.662300  0.835200  1.0  0.1218
  H  H66  1  0.577300  0.386100  0.850500  1.0  0.0937
  C  C67  1  0.122100  0.434550  0.659240  1.0  0.1548
  C  C68  1  0.120940  0.607180  0.707640  1.0  0.1538
  C  C69  1  0.135270  0.440550  0.563090  1.0  -0.2046
  C  C70  1  0.144800  0.405320  0.068980  1.0  0.1489
  C  C71  1  0.123500  0.570240  0.112560  1.0  0.1636
  C  C72  1  0.144600  0.481200  0.246500  1.0  0.1342
  C  C73  1  0.139200  0.535130  0.536280  1.0  0.1209
  C  C74  1  0.133000  0.619900  0.612600  1.0  -0.234
  C  C75  1  0.130800  0.569200  0.215200  1.0  -0.2303
  C  C76  1  0.147300  0.471900  0.352700  1.0  -0.1513
  C  C77  1  0.153200  0.398400  0.170400  1.0  -0.238
  C  C78  1  0.145900  0.546830  0.432770  1.0  -0.1394
  C  C79  1  0.659240  0.122100  0.434550  1.0  0.1531
  C  C80  1  0.707640  0.120940  0.607180  1.0  0.1574
  C  C81  1  0.563090  0.135270  0.440550  1.0  -0.2067
  C  C82  1  0.068980  0.144800  0.405320  1.0  0.148
  C  C83  1  0.112560  0.123500  0.570240  1.0  0.1602
  C  C84  1  0.246500  0.144600  0.481200  1.0  0.133
  C  C85  1  0.536280  0.139200  0.535130  1.0  0.1225
  C  C86  1  0.612600  0.133000  0.619900  1.0  -0.2351
  C  C87  1  0.215200  0.130800  0.569200  1.0  -0.2288
  C  C88  1  0.352700  0.147300  0.471900  1.0  -0.1502
  C  C89  1  0.170400  0.153200  0.398400  1.0  -0.2337
  C  C90  1  0.432770  0.145900  0.546830  1.0  -0.1363
  C  C91  1  0.434550  0.659240  0.122100  1.0  0.157
  C  C92  1  0.607180  0.707640  0.120940  1.0  0.1568
  C  C93  1  0.440550  0.563090  0.135270  1.0  -0.2053
  C  C94  1  0.405320  0.068980  0.144800  1.0  0.1502
  C  C95  1  0.570240  0.112560  0.123500  1.0  0.161
  C  C96  1  0.481200  0.246500  0.144600  1.0  0.1307
  C  C97  1  0.535130  0.536280  0.139200  1.0  0.1192
  C  C98  1  0.619900  0.612600  0.133000  1.0  -0.2313
  C  C99  1  0.569200  0.215200  0.130800  1.0  -0.2277
  C  C100  1  0.471900  0.352700  0.147300  1.0  -0.1495
  C  C101  1  0.398400  0.170400  0.153200  1.0  -0.2329
  C  C102  1  0.546830  0.432770  0.145900  1.0  -0.1371
  C  C103  1  0.565450  0.877900  0.340760  1.0  0.1556
  C  C104  1  0.392820  0.879060  0.292360  1.0  0.1566
  C  C105  1  0.559450  0.864730  0.436910  1.0  -0.2053
  C  C106  1  0.594680  0.855200  0.931020  1.0  0.1508
  C  C107  1  0.429760  0.876500  0.887440  1.0  0.1649
  C  C108  1  0.518800  0.855400  0.753500  1.0  0.133
  C  C109  1  0.464870  0.860800  0.463720  1.0  0.121
  C  C110  1  0.380100  0.867000  0.387400  1.0  -0.2332
  C  C111  1  0.430800  0.869200  0.784800  1.0  -0.2268
  C  C112  1  0.528100  0.852700  0.647300  1.0  -0.1504
  C  C113  1  0.601600  0.846800  0.829600  1.0  -0.2343
  C  C114  1  0.453170  0.854100  0.567230  1.0  -0.1367
  C  C115  1  0.877900  0.340760  0.565450  1.0  0.1547
  C  C116  1  0.879060  0.292360  0.392820  1.0  0.1561
  C  C117  1  0.864730  0.436910  0.559450  1.0  -0.2063
  C  C118  1  0.855200  0.931020  0.594680  1.0  0.1494
  C  C119  1  0.876500  0.887440  0.429760  1.0  0.1604
  C  C120  1  0.855400  0.753500  0.518800  1.0  0.1332
  C  C121  1  0.860800  0.463720  0.464870  1.0  0.1198
  C  C122  1  0.867000  0.387400  0.380100  1.0  -0.2317
  C  C123  1  0.869200  0.784800  0.430800  1.0  -0.2296
  C  C124  1  0.852700  0.647300  0.528100  1.0  -0.1493
  C  C125  1  0.846800  0.829600  0.601600  1.0  -0.235
  C  C126  1  0.854100  0.567230  0.453170  1.0  -0.1361
  C  C127  1  0.340760  0.565450  0.877900  1.0  0.1568
  C  C128  1  0.292360  0.392820  0.879060  1.0  0.1538
  C  C129  1  0.436910  0.559450  0.864730  1.0  -0.2049
  C  C130  1  0.931020  0.594680  0.855200  1.0  0.1478
  C  C131  1  0.887440  0.429760  0.876500  1.0  0.1606
  C  C132  1  0.753500  0.518800  0.855400  1.0  0.1332
  C  C133  1  0.463720  0.464870  0.860800  1.0  0.1179
  C  C134  1  0.387400  0.380100  0.867000  1.0  -0.2329
  C  C135  1  0.784800  0.430800  0.869200  1.0  -0.2299
  C  C136  1  0.647300  0.528100  0.852700  1.0  -0.1507
  C  C137  1  0.829600  0.601600  0.846800  1.0  -0.237
  C  C138  1  0.567230  0.453170  0.854100  1.0  -0.1391
  N  N139  1  0.114060  0.515730  0.731480  1.0  -0.3174
  N  N140  1  0.130020  0.489090  0.039020  1.0  -0.304
  N  N141  1  0.731480  0.114060  0.515730  1.0  -0.3181
  N  N142  1  0.039020  0.130020  0.489090  1.0  -0.3044
  N  N143  1  0.515730  0.731480  0.114060  1.0  -0.3178
  N  N144  1  0.489090  0.039020  0.130020  1.0  -0.3064
  N  N145  1  0.484270  0.885940  0.268520  1.0  -0.3168
  N  N146  1  0.510910  0.869980  0.960980  1.0  -0.3068
  N  N147  1  0.885940  0.268520  0.484270  1.0  -0.3171
  N  N148  1  0.869980  0.960980  0.510910  1.0  -0.3055
  N  N149  1  0.268520  0.484270  0.885940  1.0  -0.3187
  N  N150  1  0.960980  0.510910  0.869980  1.0  -0.3032
  O  O151  1  0.057180  0.339020  0.827700  1.0  -0.6435
  O  O152  1  0.827700  0.057180  0.339020  1.0  -0.6426
  O  O153  1  0.339020  0.827700  0.057180  1.0  -0.6421
  O  O154  1  0.660980  0.942820  0.172300  1.0  -0.6425
  O  O155  1  0.942820  0.172300  0.660980  1.0  -0.6431
  O  O156  1  0.172300  0.660980  0.942820  1.0  -0.6446
