# generated using pymatgen
data_CrCoH20C24(N2O)2
_symmetry_space_group_name_H-M   'P 1'
_cell_length_a   13.66180000
_cell_length_b   13.66180000
_cell_length_c   13.66180000
_cell_angle_alpha   103.24400000
_cell_angle_beta   103.24400000
_cell_angle_gamma   103.24400000
_symmetry_Int_Tables_number   1
_chemical_formula_structural   CrCoH20C24(N2O)2
_chemical_formula_sum   'Cr3 Co3 H60 C72 N12 O6'
_cell_volume   2306.91280729
_cell_formula_units_Z   3
loop_
 _symmetry_equiv_pos_site_id
 _symmetry_equiv_pos_as_xyz
  1  'x, y, z'
loop_
 _atom_site_type_symbol
 _atom_site_label
 _atom_site_symmetry_multiplicity
 _atom_site_fract_x
 _atom_site_fract_y
 _atom_site_fract_z
 _atom_site_occupancy
 _atom_site_charge
  Cr  Cr1  1  0.500000  0.286980  0.713020  1.0  0.6015
  Cr  Cr2  1  0.713020  0.500000  0.286980  1.0  0.5788
  Cr  Cr3  1  0.286980  0.713020  0.500000  1.0  0.5921
  Co  Co4  1  0.618090  0.381910  0.000000  1.0  0.6703
  Co  Co5  1  0.000000  0.618090  0.381910  1.0  0.6693
  Co  Co6  1  0.381910  0.000000  0.618090  1.0  0.6694
  H  H7  1  0.079400  0.349800  0.887200  1.0  0.0929
  H  H8  1  0.236900  0.369400  0.873300  1.0  0.1207
  H  H9  1  0.314400  0.333000  0.160700  1.0  0.1167
  H  H10  1  0.904400  0.363000  0.815300  1.0  0.128
  H  H11  1  0.745300  0.377300  0.835600  1.0  0.0514
  H  H12  1  0.483000  0.353500  0.153400  1.0  0.0472
  H  H13  1  0.138000  0.350600  0.092400  1.0  0.0911
  H  H14  1  0.404300  0.377700  0.870100  1.0  0.0545
  H  H15  1  0.990300  0.359600  0.118600  1.0  0.1126
  H  H16  1  0.828800  0.382900  0.129900  1.0  0.08
  H  H17  1  0.887200  0.079400  0.349800  1.0  0.0936
  H  H18  1  0.873300  0.236900  0.369400  1.0  0.1201
  H  H19  1  0.160700  0.314400  0.333000  1.0  0.117
  H  H20  1  0.815300  0.904400  0.363000  1.0  0.1275
  H  H21  1  0.835600  0.745300  0.377300  1.0  0.0532
  H  H22  1  0.153400  0.483000  0.353500  1.0  0.0501
  H  H23  1  0.092400  0.138000  0.350600  1.0  0.0916
  H  H24  1  0.870100  0.404300  0.377700  1.0  0.056
  H  H25  1  0.118600  0.990300  0.359600  1.0  0.1126
  H  H26  1  0.129900  0.828800  0.382900  1.0  0.0796
  H  H27  1  0.349800  0.887200  0.079400  1.0  0.0939
  H  H28  1  0.369400  0.873300  0.236900  1.0  0.1196
  H  H29  1  0.333000  0.160700  0.314400  1.0  0.1174
  H  H30  1  0.363000  0.815300  0.904400  1.0  0.1287
  H  H31  1  0.377300  0.835600  0.745300  1.0  0.0546
  H  H32  1  0.353500  0.153400  0.483000  1.0  0.0455
  H  H33  1  0.350600  0.092400  0.138000  1.0  0.0919
  H  H34  1  0.377700  0.870100  0.404300  1.0  0.0546
  H  H35  1  0.359600  0.118600  0.990300  1.0  0.1121
  H  H36  1  0.382900  0.129900  0.828800  1.0  0.079
  H  H37  1  0.650200  0.920600  0.112800  1.0  0.0929
  H  H38  1  0.630600  0.763100  0.126700  1.0  0.1209
  H  H39  1  0.667000  0.685600  0.839300  1.0  0.1167
  H  H40  1  0.637000  0.095600  0.184700  1.0  0.1283
  H  H41  1  0.622700  0.254700  0.164400  1.0  0.0513
  H  H42  1  0.646500  0.517000  0.846600  1.0  0.0463
  H  H43  1  0.649400  0.862000  0.907600  1.0  0.0929
  H  H44  1  0.622300  0.595700  0.129900  1.0  0.0549
  H  H45  1  0.640400  0.009700  0.881400  1.0  0.1115
  H  H46  1  0.617100  0.171200  0.870100  1.0  0.0796
  H  H47  1  0.920600  0.112800  0.650200  1.0  0.0949
  H  H48  1  0.763100  0.126700  0.630600  1.0  0.1213
  H  H49  1  0.685600  0.839300  0.667000  1.0  0.1179
  H  H50  1  0.095600  0.184700  0.637000  1.0  0.1283
  H  H51  1  0.254700  0.164400  0.622700  1.0  0.0518
  H  H52  1  0.517000  0.846600  0.646500  1.0  0.0467
  H  H53  1  0.862000  0.907600  0.649400  1.0  0.0918
  H  H54  1  0.595700  0.129900  0.622300  1.0  0.0565
  H  H55  1  0.009700  0.881400  0.640400  1.0  0.1129
  H  H56  1  0.171200  0.870100  0.617100  1.0  0.0789
  H  H57  1  0.112800  0.650200  0.920600  1.0  0.0927
  H  H58  1  0.126700  0.630600  0.763100  1.0  0.1191
  H  H59  1  0.839300  0.667000  0.685600  1.0  0.1169
  H  H60  1  0.184700  0.637000  0.095600  1.0  0.1285
  H  H61  1  0.164400  0.622700  0.254700  1.0  0.0559
  H  H62  1  0.846600  0.646500  0.517000  1.0  0.0449
  H  H63  1  0.907600  0.649400  0.862000  1.0  0.0908
  H  H64  1  0.129900  0.622300  0.595700  1.0  0.055
  H  H65  1  0.881400  0.640400  0.009700  1.0  0.1127
  H  H66  1  0.870100  0.617100  0.171200  1.0  0.0785
  C  C67  1  0.070000  0.354300  0.953900  1.0  -0.1241
  C  C68  1  0.285600  0.365900  0.932200  1.0  -0.2331
  C  C69  1  0.331700  0.346100  0.101200  1.0  -0.2333
  C  C70  1  0.255200  0.355400  0.020200  1.0  0.134
  C  C71  1  0.891600  0.366400  0.880500  1.0  -0.2292
  C  C72  1  0.796600  0.375700  0.893900  1.0  0.1696
  C  C73  1  0.431900  0.355600  0.095300  1.0  0.153
  C  C74  1  0.968400  0.361800  0.964900  1.0  0.1131
  C  C75  1  0.149900  0.353200  0.027800  1.0  -0.1411
  C  C76  1  0.386200  0.371100  0.931100  1.0  0.1692
  C  C77  1  0.942500  0.365400  0.060100  1.0  -0.2001
  C  C78  1  0.844700  0.377800  0.066000  1.0  0.1424
  C  C79  1  0.953900  0.070000  0.354300  1.0  -0.1259
  C  C80  1  0.932200  0.285600  0.365900  1.0  -0.2322
  C  C81  1  0.101200  0.331700  0.346100  1.0  -0.2346
  C  C82  1  0.020200  0.255200  0.355400  1.0  0.1297
  C  C83  1  0.880500  0.891600  0.366400  1.0  -0.2291
  C  C84  1  0.893900  0.796600  0.375700  1.0  0.1679
  C  C85  1  0.095300  0.431900  0.355600  1.0  0.1556
  C  C86  1  0.964900  0.968400  0.361800  1.0  0.1103
  C  C87  1  0.027800  0.149900  0.353200  1.0  -0.1397
  C  C88  1  0.931100  0.386200  0.371100  1.0  0.1688
  C  C89  1  0.060100  0.942500  0.365400  1.0  -0.1986
  C  C90  1  0.066000  0.844700  0.377800  1.0  0.1458
  C  C91  1  0.354300  0.953900  0.070000  1.0  -0.1273
  C  C92  1  0.365900  0.932200  0.285600  1.0  -0.2325
  C  C93  1  0.346100  0.101200  0.331700  1.0  -0.2347
  C  C94  1  0.355400  0.020200  0.255200  1.0  0.1333
  C  C95  1  0.366400  0.880500  0.891600  1.0  -0.2285
  C  C96  1  0.375700  0.893900  0.796600  1.0  0.167
  C  C97  1  0.355600  0.095300  0.431900  1.0  0.1544
  C  C98  1  0.361800  0.964900  0.968400  1.0  0.1125
  C  C99  1  0.353200  0.027800  0.149900  1.0  -0.1414
  C  C100  1  0.371100  0.931100  0.386200  1.0  0.1728
  C  C101  1  0.365400  0.060100  0.942500  1.0  -0.2
  C  C102  1  0.377800  0.066000  0.844700  1.0  0.146
  C  C103  1  0.645700  0.930000  0.046100  1.0  -0.1243
  C  C104  1  0.634100  0.714400  0.067800  1.0  -0.2342
  C  C105  1  0.653900  0.668300  0.898800  1.0  -0.2338
  C  C106  1  0.644600  0.744800  0.979800  1.0  0.1327
  C  C107  1  0.633600  0.108400  0.119500  1.0  -0.2299
  C  C108  1  0.624300  0.203400  0.106100  1.0  0.1668
  C  C109  1  0.644400  0.568100  0.904700  1.0  0.154
  C  C110  1  0.638200  0.031600  0.035100  1.0  0.1119
  C  C111  1  0.646800  0.850100  0.972200  1.0  -0.141
  C  C112  1  0.628900  0.613800  0.068900  1.0  0.1687
  C  C113  1  0.634600  0.057500  0.939900  1.0  -0.1998
  C  C114  1  0.622200  0.155300  0.934000  1.0  0.1445
  C  C115  1  0.930000  0.046100  0.645700  1.0  -0.1264
  C  C116  1  0.714400  0.067800  0.634100  1.0  -0.2344
  C  C117  1  0.668300  0.898800  0.653900  1.0  -0.2366
  C  C118  1  0.744800  0.979800  0.644600  1.0  0.1315
  C  C119  1  0.108400  0.119500  0.633600  1.0  -0.2301
  C  C120  1  0.203400  0.106100  0.624300  1.0  0.1659
  C  C121  1  0.568100  0.904700  0.644400  1.0  0.1528
  C  C122  1  0.031600  0.035100  0.638200  1.0  0.1114
  C  C123  1  0.850100  0.972200  0.646800  1.0  -0.1404
  C  C124  1  0.613800  0.068900  0.628900  1.0  0.1686
  C  C125  1  0.057500  0.939900  0.634600  1.0  -0.2012
  C  C126  1  0.155300  0.934000  0.622200  1.0  0.1474
  C  C127  1  0.046100  0.645700  0.930000  1.0  -0.1246
  C  C128  1  0.067800  0.634100  0.714400  1.0  -0.2301
  C  C129  1  0.898800  0.653900  0.668300  1.0  -0.2354
  C  C130  1  0.979800  0.644600  0.744800  1.0  0.1311
  C  C131  1  0.119500  0.633600  0.108400  1.0  -0.2292
  C  C132  1  0.106100  0.624300  0.203400  1.0  0.169
  C  C133  1  0.904700  0.644400  0.568100  1.0  0.1558
  C  C134  1  0.035100  0.638200  0.031600  1.0  0.1132
  C  C135  1  0.972200  0.646800  0.850100  1.0  -0.1407
  C  C136  1  0.068900  0.628900  0.613800  1.0  0.1734
  C  C137  1  0.939900  0.634600  0.057500  1.0  -0.2005
  C  C138  1  0.934000  0.622200  0.155300  1.0  0.1461
  N  N139  1  0.459920  0.367520  0.011320  1.0  -0.3094
  N  N140  1  0.773130  0.382570  0.983100  1.0  -0.3192
  N  N141  1  0.011320  0.459920  0.367520  1.0  -0.3099
  N  N142  1  0.983100  0.773130  0.382570  1.0  -0.3188
  N  N143  1  0.367520  0.011320  0.459920  1.0  -0.3096
  N  N144  1  0.382570  0.983100  0.773130  1.0  -0.3201
  N  N145  1  0.632480  0.540080  0.988680  1.0  -0.3098
  N  N146  1  0.617430  0.226870  0.016900  1.0  -0.3202
  N  N147  1  0.540080  0.988680  0.632480  1.0  -0.3087
  N  N148  1  0.226870  0.016900  0.617430  1.0  -0.3186
  N  N149  1  0.988680  0.632480  0.540080  1.0  -0.313
  N  N150  1  0.016900  0.617430  0.226870  1.0  -0.3197
  O  O151  1  0.558420  0.325660  0.840180  1.0  -0.6164
  O  O152  1  0.840180  0.558420  0.325660  1.0  -0.6159
  O  O153  1  0.325660  0.840180  0.558420  1.0  -0.6188
  O  O154  1  0.674340  0.441580  0.159820  1.0  -0.617
  O  O155  1  0.441580  0.159820  0.674340  1.0  -0.6145
  O  O156  1  0.159820  0.674340  0.441580  1.0  -0.6185
