# generated using pymatgen
data_NiMoH20C24(N2O)2
_symmetry_space_group_name_H-M   'P 1'
_cell_length_a   21.08560000
_cell_length_b   21.08560000
_cell_length_c   17.96780000
_cell_angle_alpha   90.00000000
_cell_angle_beta   90.00000000
_cell_angle_gamma   120.00000000
_symmetry_Int_Tables_number   1
_chemical_formula_structural   NiMoH20C24(N2O)2
_chemical_formula_sum   'Ni9 Mo9 H180 C216 N36 O18'
_cell_volume   6918.26930497
_cell_formula_units_Z   9
loop_
 _symmetry_equiv_pos_site_id
 _symmetry_equiv_pos_as_xyz
  1  'x, y, z'
loop_
 _atom_site_type_symbol
 _atom_site_label
 _atom_site_symmetry_multiplicity
 _atom_site_fract_x
 _atom_site_fract_y
 _atom_site_fract_z
 _atom_site_occupancy
 _atom_site_charge
  Ni  Ni1  1  0.712630  0.045960  0.166670  1.0  0.7086
  Ni  Ni2  1  0.379300  0.379300  0.500000  1.0  0.7066
  Ni  Ni3  1  0.954040  0.666667  0.166670  1.0  0.708
  Ni  Ni4  1  0.620700  0.000000  0.500000  1.0  0.7061
  Ni  Ni5  1  0.333333  0.287370  0.166670  1.0  0.706
  Ni  Ni6  1  0.000000  0.620700  0.500000  1.0  0.7059
  Ni  Ni7  1  0.045960  0.712630  0.833330  1.0  0.7088
  Ni  Ni8  1  0.666667  0.954040  0.833330  1.0  0.7083
  Ni  Ni9  1  0.287370  0.333333  0.833330  1.0  0.7058
  Mo  Mo10  1  0.791670  0.000000  0.000000  1.0  0.4522
  Mo  Mo11  1  0.458330  0.333333  0.333333  1.0  0.4569
  Mo  Mo12  1  0.125000  0.666667  0.666667  1.0  0.4585
  Mo  Mo13  1  0.000000  0.791670  0.000000  1.0  0.4537
  Mo  Mo14  1  0.666667  0.125000  0.333333  1.0  0.4594
  Mo  Mo15  1  0.333333  0.458330  0.666667  1.0  0.4579
  Mo  Mo16  1  0.208330  0.208330  0.000000  1.0  0.4583
  Mo  Mo17  1  0.875000  0.541670  0.333333  1.0  0.4543
  Mo  Mo18  1  0.541670  0.875000  0.666667  1.0  0.4544
  H  H19  1  0.344200  0.505500  0.485600  1.0  0.0643
  H  H20  1  0.388900  0.617800  0.429100  1.0  0.1118
  H  H21  1  0.551400  0.592000  0.340100  1.0  0.1195
  H  H22  1  0.501100  0.480100  0.398700  1.0  0.0704
  H  H23  1  0.484400  0.719900  0.357300  1.0  0.0925
  H  H24  1  0.581900  0.691400  0.281000  1.0  0.0868
  H  H25  1  0.666900  0.785900  0.196600  1.0  0.1237
  H  H26  1  0.724100  0.904900  0.153400  1.0  0.0651
  H  H27  1  0.600400  0.952000  0.280500  1.0  0.0813
  H  H28  1  0.537600  0.833100  0.325200  1.0  0.1056
  H  H29  1  0.010870  0.838830  0.818930  1.0  0.0643
  H  H30  1  0.055570  0.951130  0.762430  1.0  0.1113
  H  H31  1  0.218070  0.925330  0.673430  1.0  0.1195
  H  H32  1  0.167770  0.813430  0.732030  1.0  0.0704
  H  H33  1  0.151070  0.053230  0.690630  1.0  0.0895
  H  H34  1  0.248570  0.024730  0.614330  1.0  0.0869
  H  H35  1  0.333570  0.119230  0.529930  1.0  0.1237
  H  H36  1  0.390770  0.238230  0.486730  1.0  0.0651
  H  H37  1  0.267070  0.285330  0.613830  1.0  0.0813
  H  H38  1  0.204270  0.166430  0.658530  1.0  0.1056
  H  H39  1  0.677530  0.172170  0.152270  1.0  0.0643
  H  H40  1  0.722230  0.284470  0.095770  1.0  0.1121
  H  H41  1  0.884730  0.258670  0.006770  1.0  0.1195
  H  H42  1  0.834430  0.146770  0.065370  1.0  0.0704
  H  H43  1  0.817730  0.386570  0.023970  1.0  0.0925
  H  H44  1  0.915230  0.358070  0.947670  1.0  0.0868
  H  H45  1  0.000230  0.452570  0.863270  1.0  0.1236
  H  H46  1  0.057430  0.571570  0.820070  1.0  0.0651
  H  H47  1  0.933730  0.618670  0.947170  1.0  0.0809
  H  H48  1  0.870930  0.499770  0.991870  1.0  0.1056
  H  H49  1  0.494500  0.838700  0.485600  1.0  0.0655
  H  H50  1  0.382200  0.771100  0.429100  1.0  0.1135
  H  H51  1  0.408000  0.959400  0.340100  1.0  0.1207
  H  H52  1  0.519900  0.021000  0.398700  1.0  0.072
  H  H53  1  0.280100  0.764500  0.357300  1.0  0.0896
  H  H54  1  0.308600  0.890500  0.281000  1.0  0.0887
  H  H55  1  0.214100  0.881000  0.196600  1.0  0.1252
  H  H56  1  0.095100  0.819200  0.153400  1.0  0.0657
  H  H57  1  0.048000  0.648400  0.280500  1.0  0.0812
  H  H58  1  0.166900  0.704500  0.325200  1.0  0.1058
  H  H59  1  0.161170  0.172030  0.818930  1.0  0.0655
  H  H60  1  0.048870  0.104430  0.762430  1.0  0.112
  H  H61  1  0.074670  0.292730  0.673430  1.0  0.1207
  H  H62  1  0.186570  0.354330  0.732030  1.0  0.072
  H  H63  1  0.946770  0.097830  0.690630  1.0  0.0914
  H  H64  1  0.975270  0.223830  0.614330  1.0  0.0887
  H  H65  1  0.880770  0.214330  0.529930  1.0  0.1252
  H  H66  1  0.761770  0.152530  0.486730  1.0  0.0657
  H  H67  1  0.714670  0.981730  0.613830  1.0  0.0812
  H  H68  1  0.833570  0.037830  0.658530  1.0  0.1058
  H  H69  1  0.827830  0.505370  0.152270  1.0  0.0655
  H  H70  1  0.715530  0.437770  0.095770  1.0  0.1135
  H  H71  1  0.741330  0.626070  0.006770  1.0  0.1207
  H  H72  1  0.853230  0.687670  0.065370  1.0  0.072
  H  H73  1  0.613430  0.431170  0.023970  1.0  0.0895
  H  H74  1  0.641930  0.557170  0.947670  1.0  0.0887
  H  H75  1  0.547430  0.547670  0.863270  1.0  0.1252
  H  H76  1  0.428430  0.485870  0.820070  1.0  0.0657
  H  H77  1  0.381330  0.315070  0.947170  1.0  0.0812
  H  H78  1  0.500230  0.371170  0.991870  1.0  0.1058
  H  H79  1  0.161300  0.655800  0.485600  1.0  0.0657
  H  H80  1  0.228900  0.611100  0.429100  1.0  0.1116
  H  H81  1  0.040600  0.448600  0.340100  1.0  0.1199
  H  H82  1  0.979000  0.498900  0.398700  1.0  0.0708
  H  H83  1  0.235500  0.515600  0.357300  1.0  0.0943
  H  H84  1  0.109500  0.418100  0.281000  1.0  0.0865
  H  H85  1  0.119000  0.333100  0.196600  1.0  0.125
  H  H86  1  0.180800  0.275900  0.153400  1.0  0.0646
  H  H87  1  0.351600  0.399600  0.280500  1.0  0.0812
  H  H88  1  0.295500  0.462400  0.325200  1.0  0.1061
  H  H89  1  0.827970  0.989130  0.818930  1.0  0.0657
  H  H90  1  0.895570  0.944430  0.762430  1.0  0.1135
  H  H91  1  0.707270  0.781930  0.673430  1.0  0.1199
  H  H92  1  0.645670  0.832230  0.732030  1.0  0.0708
  H  H93  1  0.902170  0.848930  0.690630  1.0  0.0876
  H  H94  1  0.776170  0.751430  0.614330  1.0  0.0865
  H  H95  1  0.785670  0.666430  0.529930  1.0  0.125
  H  H96  1  0.847470  0.609230  0.486730  1.0  0.0646
  H  H97  1  0.018270  0.732930  0.613830  1.0  0.0812
  H  H98  1  0.962170  0.795730  0.658530  1.0  0.1061
  H  H99  1  0.494630  0.322470  0.152270  1.0  0.0657
  H  H100  1  0.562230  0.277770  0.095770  1.0  0.1116
  H  H101  1  0.373930  0.115270  0.006770  1.0  0.1199
  H  H102  1  0.312330  0.165570  0.065370  1.0  0.0708
  H  H103  1  0.568830  0.182270  0.023970  1.0  0.0943
  H  H104  1  0.442830  0.084770  0.947670  1.0  0.0866
  H  H105  1  0.452330  0.999770  0.863270  1.0  0.125
  H  H106  1  0.514130  0.942570  0.820070  1.0  0.0646
  H  H107  1  0.684930  0.066270  0.947170  1.0  0.0812
  H  H108  1  0.628830  0.129070  0.991870  1.0  0.1061
  H  H109  1  0.505500  0.344200  0.514400  1.0  0.0663
  H  H110  1  0.617800  0.388900  0.570900  1.0  0.112
  H  H111  1  0.592000  0.551400  0.659900  1.0  0.1199
  H  H112  1  0.480100  0.501100  0.601300  1.0  0.0706
  H  H113  1  0.719900  0.484400  0.642700  1.0  0.0929
  H  H114  1  0.691400  0.581900  0.719000  1.0  0.0871
  H  H115  1  0.785900  0.666900  0.803400  1.0  0.125
  H  H116  1  0.904900  0.724100  0.846600  1.0  0.0653
  H  H117  1  0.952000  0.600400  0.719500  1.0  0.0809
  H  H118  1  0.833100  0.537600  0.674800  1.0  0.1061
  H  H119  1  0.172170  0.677530  0.847730  1.0  0.0663
  H  H120  1  0.284470  0.722230  0.904230  1.0  0.1123
  H  H121  1  0.258670  0.884730  0.993230  1.0  0.1199
  H  H122  1  0.146770  0.834430  0.934630  1.0  0.0706
  H  H123  1  0.386570  0.817730  0.976030  1.0  0.0929
  H  H124  1  0.358070  0.915230  0.052330  1.0  0.0871
  H  H125  1  0.452570  0.000230  0.136730  1.0  0.125
  H  H126  1  0.571570  0.057430  0.179930  1.0  0.0653
  H  H127  1  0.618670  0.933730  0.052830  1.0  0.0792
  H  H128  1  0.499770  0.870930  0.008130  1.0  0.1061
  H  H129  1  0.838830  0.010870  0.181070  1.0  0.0663
  H  H130  1  0.951130  0.055570  0.237570  1.0  0.1116
  H  H131  1  0.925330  0.218070  0.326570  1.0  0.1199
  H  H132  1  0.813430  0.167770  0.267970  1.0  0.0706
  H  H133  1  0.053230  0.151070  0.309370  1.0  0.089
  H  H134  1  0.024730  0.248570  0.385670  1.0  0.0871
  H  H135  1  0.119230  0.333570  0.470070  1.0  0.125
  H  H136  1  0.238230  0.390770  0.513270  1.0  0.0653
  H  H137  1  0.285330  0.267070  0.386170  1.0  0.0809
  H  H138  1  0.166430  0.204270  0.341470  1.0  0.1061
  H  H139  1  0.838700  0.494500  0.514400  1.0  0.0647
  H  H140  1  0.771100  0.382200  0.570900  1.0  0.1133
  H  H141  1  0.959400  0.408000  0.659900  1.0  0.119
  H  H142  1  0.021000  0.519900  0.601300  1.0  0.0703
  H  H143  1  0.764500  0.280100  0.642700  1.0  0.0892
  H  H144  1  0.890500  0.308600  0.719000  1.0  0.0879
  H  H145  1  0.881000  0.214100  0.803400  1.0  0.1235
  H  H146  1  0.819200  0.095100  0.846600  1.0  0.0649
  H  H147  1  0.648400  0.048000  0.719500  1.0  0.0805
  H  H148  1  0.704500  0.166900  0.674800  1.0  0.1062
  H  H149  1  0.505370  0.827830  0.847730  1.0  0.0646
  H  H150  1  0.437770  0.715530  0.904230  1.0  0.1133
  H  H151  1  0.626070  0.741330  0.993230  1.0  0.119
  H  H152  1  0.687670  0.853230  0.934630  1.0  0.0703
  H  H153  1  0.431170  0.613430  0.976030  1.0  0.0892
  H  H154  1  0.557170  0.641930  0.052330  1.0  0.0879
  H  H155  1  0.547670  0.547430  0.136730  1.0  0.1234
  H  H156  1  0.485870  0.428430  0.179930  1.0  0.0649
  H  H157  1  0.315070  0.381330  0.052830  1.0  0.0805
  H  H158  1  0.371170  0.500230  0.008130  1.0  0.1062
  H  H159  1  0.172030  0.161170  0.181070  1.0  0.0647
  H  H160  1  0.104430  0.048870  0.237570  1.0  0.1123
  H  H161  1  0.292730  0.074670  0.326570  1.0  0.119
  H  H162  1  0.354330  0.186570  0.267970  1.0  0.0703
  H  H163  1  0.097830  0.946770  0.309370  1.0  0.0912
  H  H164  1  0.223830  0.975270  0.385670  1.0  0.0879
  H  H165  1  0.214330  0.880770  0.470070  1.0  0.1234
  H  H166  1  0.152530  0.761770  0.513270  1.0  0.0649
  H  H167  1  0.981730  0.714670  0.386170  1.0  0.0805
  H  H168  1  0.037830  0.833570  0.341470  1.0  0.1062
  H  H169  1  0.655800  0.161300  0.514400  1.0  0.0648
  H  H170  1  0.611100  0.228900  0.570900  1.0  0.111
  H  H171  1  0.448600  0.040600  0.659900  1.0  0.1204
  H  H172  1  0.498900  0.979000  0.601300  1.0  0.0727
  H  H173  1  0.515600  0.235500  0.642700  1.0  0.0943
  H  H174  1  0.418100  0.109500  0.719000  1.0  0.0891
  H  H175  1  0.333100  0.119000  0.803400  1.0  0.1251
  H  H176  1  0.275900  0.180800  0.846600  1.0  0.0658
  H  H177  1  0.399600  0.351600  0.719500  1.0  0.0811
  H  H178  1  0.462400  0.295500  0.674800  1.0  0.1062
  H  H179  1  0.322470  0.494630  0.847730  1.0  0.0649
  H  H180  1  0.277770  0.562230  0.904230  1.0  0.111
  H  H181  1  0.115270  0.373930  0.993230  1.0  0.1204
  H  H182  1  0.165570  0.312330  0.934630  1.0  0.0727
  H  H183  1  0.182270  0.568830  0.976030  1.0  0.0943
  H  H184  1  0.084770  0.442830  0.052330  1.0  0.0892
  H  H185  1  0.999770  0.452330  0.136730  1.0  0.1251
  H  H186  1  0.942570  0.514130  0.179930  1.0  0.0658
  H  H187  1  0.066270  0.684930  0.052830  1.0  0.0811
  H  H188  1  0.129070  0.628830  0.008130  1.0  0.1062
  H  H189  1  0.989130  0.827970  0.181070  1.0  0.0648
  H  H190  1  0.944430  0.895570  0.237570  1.0  0.1128
  H  H191  1  0.781930  0.707270  0.326570  1.0  0.1204
  H  H192  1  0.832230  0.645670  0.267970  1.0  0.0727
  H  H193  1  0.848930  0.902170  0.309370  1.0  0.0877
  H  H194  1  0.751430  0.776170  0.385670  1.0  0.0891
  H  H195  1  0.666430  0.785670  0.470070  1.0  0.1251
  H  H196  1  0.609230  0.847470  0.513270  1.0  0.0658
  H  H197  1  0.732930  0.018270  0.386170  1.0  0.0811
  H  H198  1  0.795730  0.962170  0.341470  1.0  0.1062
  C  C199  1  0.386970  0.523440  0.455640  1.0  0.1448
  C  C200  1  0.413190  0.590530  0.421780  1.0  -0.2091
  C  C201  1  0.475510  0.618500  0.376700  1.0  0.1016
  C  C202  1  0.508530  0.575370  0.369460  1.0  -0.2171
  C  C203  1  0.478370  0.508780  0.405170  1.0  0.1516
  C  C204  1  0.506170  0.691540  0.343900  1.0  -0.1545
  C  C205  1  0.562250  0.721020  0.296820  1.0  -0.1535
  C  C206  1  0.596110  0.795760  0.267390  1.0  0.089
  C  C207  1  0.652240  0.818980  0.214740  1.0  -0.2181
  C  C208  1  0.686160  0.890160  0.189340  1.0  0.1535
  C  C209  1  0.613710  0.917620  0.263250  1.0  0.1597
  C  C210  1  0.576440  0.846900  0.290640  1.0  -0.1882
  C  C211  1  0.053640  0.856770  0.788970  1.0  0.1448
  C  C212  1  0.079860  0.923860  0.755110  1.0  -0.2091
  C  C213  1  0.142180  0.951830  0.710030  1.0  0.1011
  C  C214  1  0.175200  0.908700  0.702790  1.0  -0.2171
  C  C215  1  0.145040  0.842110  0.738500  1.0  0.1516
  C  C216  1  0.172840  0.024870  0.677230  1.0  -0.1545
  C  C217  1  0.228920  0.054350  0.630150  1.0  -0.1535
  C  C218  1  0.262780  0.129090  0.600720  1.0  0.0891
  C  C219  1  0.318910  0.152310  0.548070  1.0  -0.218
  C  C220  1  0.352830  0.223490  0.522670  1.0  0.1534
  C  C221  1  0.280380  0.250950  0.596580  1.0  0.1597
  C  C222  1  0.243110  0.180230  0.623970  1.0  -0.1882
  C  C223  1  0.720300  0.190110  0.122310  1.0  0.1447
  C  C224  1  0.746520  0.257200  0.088450  1.0  -0.2091
  C  C225  1  0.808840  0.285170  0.043370  1.0  0.1016
  C  C226  1  0.841860  0.242040  0.036130  1.0  -0.2171
  C  C227  1  0.811700  0.175450  0.071840  1.0  0.1516
  C  C228  1  0.839500  0.358210  0.010570  1.0  -0.1545
  C  C229  1  0.895580  0.387690  0.963490  1.0  -0.1535
  C  C230  1  0.929440  0.462430  0.934060  1.0  0.089
  C  C231  1  0.985570  0.485650  0.881410  1.0  -0.2181
  C  C232  1  0.019490  0.556830  0.856010  1.0  0.1535
  C  C233  1  0.947040  0.584290  0.929920  1.0  0.1597
  C  C234  1  0.909770  0.513570  0.957310  1.0  -0.1882
  C  C235  1  0.476560  0.863530  0.455640  1.0  0.1454
  C  C236  1  0.409470  0.822660  0.421780  1.0  -0.2129
  C  C237  1  0.381500  0.857010  0.376700  1.0  0.0981
  C  C238  1  0.424630  0.933160  0.369460  1.0  -0.2186
  C  C239  1  0.491220  0.969590  0.405170  1.0  0.1498
  C  C240  1  0.308460  0.814630  0.343900  1.0  -0.1575
  C  C241  1  0.278980  0.841230  0.296820  1.0  -0.1563
  C  C242  1  0.204240  0.800350  0.267390  1.0  0.0917
  C  C243  1  0.181020  0.833260  0.214740  1.0  -0.2186
  C  C244  1  0.109840  0.796000  0.189340  1.0  0.1535
  C  C245  1  0.082380  0.696090  0.263250  1.0  0.1619
  C  C246  1  0.153100  0.729540  0.290640  1.0  -0.1871
  C  C247  1  0.143230  0.196860  0.788970  1.0  0.1454
  C  C248  1  0.076140  0.155990  0.755110  1.0  -0.2129
  C  C249  1  0.048170  0.190340  0.710030  1.0  0.0981
  C  C250  1  0.091300  0.266490  0.702790  1.0  -0.2186
  C  C251  1  0.157890  0.302920  0.738500  1.0  0.1498
  C  C252  1  0.975130  0.147960  0.677230  1.0  -0.1575
  C  C253  1  0.945650  0.174560  0.630150  1.0  -0.1563
  C  C254  1  0.870910  0.133680  0.600720  1.0  0.0917
  C  C255  1  0.847690  0.166590  0.548070  1.0  -0.2186
  C  C256  1  0.776510  0.129330  0.522670  1.0  0.1534
  C  C257  1  0.749050  0.029420  0.596580  1.0  0.1619
  C  C258  1  0.819770  0.062870  0.623970  1.0  -0.1871
  C  C259  1  0.809890  0.530200  0.122310  1.0  0.1453
  C  C260  1  0.742800  0.489330  0.088450  1.0  -0.2128
  C  C261  1  0.714830  0.523680  0.043370  1.0  0.0976
  C  C262  1  0.757960  0.599830  0.036130  1.0  -0.2186
  C  C263  1  0.824550  0.636260  0.071840  1.0  0.1498
  C  C264  1  0.641790  0.481300  0.010570  1.0  -0.1576
  C  C265  1  0.612310  0.507900  0.963490  1.0  -0.1563
  C  C266  1  0.537570  0.467020  0.934060  1.0  0.0917
  C  C267  1  0.514350  0.499930  0.881410  1.0  -0.2187
  C  C268  1  0.443170  0.462670  0.856010  1.0  0.1536
  C  C269  1  0.415710  0.362760  0.929920  1.0  0.1619
  C  C270  1  0.486430  0.396210  0.957310  1.0  -0.1871
  C  C271  1  0.136470  0.613030  0.455640  1.0  0.1476
  C  C272  1  0.177340  0.586810  0.421780  1.0  -0.2088
  C  C273  1  0.142990  0.524490  0.376700  1.0  0.0966
  C  C274  1  0.066840  0.491470  0.369460  1.0  -0.2209
  C  C275  1  0.030410  0.521630  0.405170  1.0  0.1497
  C  C276  1  0.185370  0.493830  0.343900  1.0  -0.1536
  C  C277  1  0.158770  0.437750  0.296820  1.0  -0.1546
  C  C278  1  0.199650  0.403890  0.267390  1.0  0.0911
  C  C279  1  0.166740  0.347760  0.214740  1.0  -0.2166
  C  C280  1  0.204000  0.313840  0.189340  1.0  0.1535
  C  C281  1  0.303910  0.386290  0.263250  1.0  0.1604
  C  C282  1  0.270460  0.423560  0.290640  1.0  -0.1863
  C  C283  1  0.803140  0.946360  0.788970  1.0  0.1476
  C  C284  1  0.844010  0.920140  0.755110  1.0  -0.2088
  C  C285  1  0.809660  0.857820  0.710030  1.0  0.0971
  C  C286  1  0.733510  0.824800  0.702790  1.0  -0.2209
  C  C287  1  0.697080  0.854960  0.738500  1.0  0.1496
  C  C288  1  0.852040  0.827160  0.677230  1.0  -0.1536
  C  C289  1  0.825440  0.771080  0.630150  1.0  -0.1546
  C  C290  1  0.866320  0.737220  0.600720  1.0  0.0911
  C  C291  1  0.833410  0.681090  0.548070  1.0  -0.2165
  C  C292  1  0.870670  0.647170  0.522670  1.0  0.1535
  C  C293  1  0.970580  0.719620  0.596580  1.0  0.1604
  C  C294  1  0.937130  0.756890  0.623970  1.0  -0.1863
  C  C295  1  0.469800  0.279700  0.122310  1.0  0.1477
  C  C296  1  0.510670  0.253480  0.088450  1.0  -0.2088
  C  C297  1  0.476320  0.191160  0.043370  1.0  0.0971
  C  C298  1  0.400170  0.158140  0.036130  1.0  -0.2209
  C  C299  1  0.363740  0.188300  0.071840  1.0  0.1497
  C  C300  1  0.518700  0.160500  0.010570  1.0  -0.1536
  C  C301  1  0.492100  0.104420  0.963490  1.0  -0.1546
  C  C302  1  0.532980  0.070560  0.934060  1.0  0.0911
  C  C303  1  0.500070  0.014430  0.881410  1.0  -0.2166
  C  C304  1  0.537330  0.980510  0.856010  1.0  0.1534
  C  C305  1  0.637240  0.052960  0.929920  1.0  0.1604
  C  C306  1  0.603790  0.090230  0.957310  1.0  -0.1863
  C  C307  1  0.523440  0.386970  0.544360  1.0  0.146
  C  C308  1  0.590530  0.413190  0.578220  1.0  -0.2097
  C  C309  1  0.618500  0.475510  0.623300  1.0  0.0968
  C  C310  1  0.575370  0.508530  0.630540  1.0  -0.22
  C  C311  1  0.508780  0.478370  0.594830  1.0  0.1488
  C  C312  1  0.691540  0.506170  0.656100  1.0  -0.1544
  C  C313  1  0.721020  0.562250  0.703180  1.0  -0.1542
  C  C314  1  0.795760  0.596110  0.732610  1.0  0.0908
  C  C315  1  0.818980  0.652240  0.785260  1.0  -0.2168
  C  C316  1  0.890160  0.686160  0.810660  1.0  0.1533
  C  C317  1  0.917620  0.613710  0.736750  1.0  0.1612
  C  C318  1  0.846900  0.576440  0.709360  1.0  -0.1859
  C  C319  1  0.190110  0.720300  0.877690  1.0  0.146
  C  C320  1  0.257200  0.746520  0.911550  1.0  -0.2097
  C  C321  1  0.285170  0.808840  0.956630  1.0  0.0968
  C  C322  1  0.242040  0.841860  0.963870  1.0  -0.22
  C  C323  1  0.175450  0.811700  0.928160  1.0  0.1488
  C  C324  1  0.358210  0.839500  0.989430  1.0  -0.1544
  C  C325  1  0.387690  0.895580  0.036510  1.0  -0.1542
  C  C326  1  0.462430  0.929440  0.065940  1.0  0.0908
  C  C327  1  0.485650  0.985570  0.118590  1.0  -0.2168
  C  C328  1  0.556830  0.019490  0.143990  1.0  0.1533
  C  C329  1  0.584290  0.947040  0.070080  1.0  0.1612
  C  C330  1  0.513570  0.909770  0.042690  1.0  -0.1859
  C  C331  1  0.856770  0.053640  0.211030  1.0  0.146
  C  C332  1  0.923860  0.079860  0.244890  1.0  -0.2097
  C  C333  1  0.951830  0.142180  0.289970  1.0  0.0963
  C  C334  1  0.908700  0.175200  0.297210  1.0  -0.22
  C  C335  1  0.842110  0.145040  0.261500  1.0  0.1488
  C  C336  1  0.024870  0.172840  0.322770  1.0  -0.1544
  C  C337  1  0.054350  0.228920  0.369850  1.0  -0.1542
  C  C338  1  0.129090  0.262780  0.399280  1.0  0.0908
  C  C339  1  0.152310  0.318910  0.451930  1.0  -0.2168
  C  C340  1  0.223490  0.352830  0.477330  1.0  0.1532
  C  C341  1  0.250950  0.280380  0.403420  1.0  0.1612
  C  C342  1  0.180230  0.243110  0.376030  1.0  -0.1859
  C  C343  1  0.863530  0.476560  0.544360  1.0  0.1456
  C  C344  1  0.822660  0.409470  0.578220  1.0  -0.2098
  C  C345  1  0.857010  0.381500  0.623300  1.0  0.1012
  C  C346  1  0.933160  0.424630  0.630540  1.0  -0.2166
  C  C347  1  0.969590  0.491220  0.594830  1.0  0.1522
  C  C348  1  0.814630  0.308460  0.656100  1.0  -0.1548
  C  C349  1  0.841230  0.278980  0.703180  1.0  -0.1537
  C  C350  1  0.800350  0.204240  0.732610  1.0  0.0908
  C  C351  1  0.833260  0.181020  0.785260  1.0  -0.2171
  C  C352  1  0.796000  0.109840  0.810660  1.0  0.1534
  C  C353  1  0.696090  0.082380  0.736750  1.0  0.1603
  C  C354  1  0.729540  0.153100  0.709360  1.0  -0.1866
  C  C355  1  0.530200  0.809890  0.877690  1.0  0.1456
  C  C356  1  0.489330  0.742800  0.911550  1.0  -0.2098
  C  C357  1  0.523680  0.714830  0.956630  1.0  0.1007
  C  C358  1  0.599830  0.757960  0.963870  1.0  -0.2166
  C  C359  1  0.636260  0.824550  0.928160  1.0  0.1522
  C  C360  1  0.481300  0.641790  0.989430  1.0  -0.1548
  C  C361  1  0.507900  0.612310  0.036510  1.0  -0.1537
  C  C362  1  0.467020  0.537570  0.065940  1.0  0.0908
  C  C363  1  0.499930  0.514350  0.118590  1.0  -0.217
  C  C364  1  0.462670  0.443170  0.143990  1.0  0.1536
  C  C365  1  0.362760  0.415710  0.070080  1.0  0.1603
  C  C366  1  0.396210  0.486430  0.042690  1.0  -0.1867
  C  C367  1  0.196860  0.143230  0.211030  1.0  0.1456
  C  C368  1  0.155990  0.076140  0.244890  1.0  -0.2098
  C  C369  1  0.190340  0.048170  0.289970  1.0  0.1012
  C  C370  1  0.266490  0.091300  0.297210  1.0  -0.2166
  C  C371  1  0.302920  0.157890  0.261500  1.0  0.1522
  C  C372  1  0.147960  0.975130  0.322770  1.0  -0.1548
  C  C373  1  0.174560  0.945650  0.369850  1.0  -0.1537
  C  C374  1  0.133680  0.870910  0.399280  1.0  0.0908
  C  C375  1  0.166590  0.847690  0.451930  1.0  -0.2171
  C  C376  1  0.129330  0.776510  0.477330  1.0  0.1535
  C  C377  1  0.029420  0.749050  0.403420  1.0  0.1603
  C  C378  1  0.062870  0.819770  0.376030  1.0  -0.1867
  C  C379  1  0.613030  0.136470  0.544360  1.0  0.1425
  C  C380  1  0.586810  0.177340  0.578220  1.0  -0.2114
  C  C381  1  0.524490  0.142990  0.623300  1.0  0.098
  C  C382  1  0.491470  0.066840  0.630540  1.0  -0.2186
  C  C383  1  0.521630  0.030410  0.594830  1.0  0.1502
  C  C384  1  0.493830  0.185370  0.656100  1.0  -0.1571
  C  C385  1  0.437750  0.158770  0.703180  1.0  -0.1549
  C  C386  1  0.403890  0.199650  0.732610  1.0  0.0935
  C  C387  1  0.347760  0.166740  0.785260  1.0  -0.2192
  C  C388  1  0.313840  0.204000  0.810660  1.0  0.1533
  C  C389  1  0.386290  0.303910  0.736750  1.0  0.1608
  C  C390  1  0.423560  0.270460  0.709360  1.0  -0.1861
  C  C391  1  0.279700  0.469800  0.877690  1.0  0.1425
  C  C392  1  0.253480  0.510670  0.911550  1.0  -0.2114
  C  C393  1  0.191160  0.476320  0.956630  1.0  0.0984
  C  C394  1  0.158140  0.400170  0.963870  1.0  -0.2186
  C  C395  1  0.188300  0.363740  0.928160  1.0  0.1502
  C  C396  1  0.160500  0.518700  0.989430  1.0  -0.1571
  C  C397  1  0.104420  0.492100  0.036510  1.0  -0.1549
  C  C398  1  0.070560  0.532980  0.065940  1.0  0.0935
  C  C399  1  0.014430  0.500070  0.118590  1.0  -0.2192
  C  C400  1  0.980510  0.537330  0.143990  1.0  0.1531
  C  C401  1  0.052960  0.637240  0.070080  1.0  0.1608
  C  C402  1  0.090230  0.603790  0.042690  1.0  -0.1861
  C  C403  1  0.946360  0.803140  0.211030  1.0  0.1425
  C  C404  1  0.920140  0.844010  0.244890  1.0  -0.2114
  C  C405  1  0.857820  0.809660  0.289970  1.0  0.0984
  C  C406  1  0.824800  0.733510  0.297210  1.0  -0.2186
  C  C407  1  0.854960  0.697080  0.261500  1.0  0.1501
  C  C408  1  0.827160  0.852040  0.322770  1.0  -0.1571
  C  C409  1  0.771080  0.825440  0.369850  1.0  -0.1549
  C  C410  1  0.737220  0.866320  0.399280  1.0  0.0934
  C  C411  1  0.681090  0.833410  0.451930  1.0  -0.2191
  C  C412  1  0.647170  0.870670  0.477330  1.0  0.1533
  C  C413  1  0.719620  0.970580  0.403420  1.0  0.1608
  C  C414  1  0.756890  0.937130  0.376030  1.0  -0.1862
  N  N415  1  0.668350  0.939760  0.212780  1.0  -0.3234
  N  N416  1  0.418720  0.482110  0.448520  1.0  -0.3149
  N  N417  1  0.335020  0.273090  0.546110  1.0  -0.3234
  N  N418  1  0.085390  0.815440  0.781850  1.0  -0.3149
  N  N419  1  0.001680  0.606430  0.879450  1.0  -0.3234
  N  N420  1  0.752050  0.148780  0.115190  1.0  -0.3149
  N  N421  1  0.060240  0.728590  0.212780  1.0  -0.3263
  N  N422  1  0.517890  0.936610  0.448520  1.0  -0.314
  N  N423  1  0.726910  0.061920  0.546110  1.0  -0.3263
  N  N424  1  0.184560  0.269940  0.781850  1.0  -0.314
  N  N425  1  0.393570  0.395260  0.879450  1.0  -0.3263
  N  N426  1  0.851220  0.603280  0.115190  1.0  -0.314
  N  N427  1  0.271410  0.331650  0.212780  1.0  -0.3269
  N  N428  1  0.063390  0.581280  0.448520  1.0  -0.3143
  N  N429  1  0.938080  0.664980  0.546110  1.0  -0.3269
  N  N430  1  0.730060  0.914610  0.781850  1.0  -0.3143
  N  N431  1  0.604740  0.998320  0.879450  1.0  -0.3269
  N  N432  1  0.396720  0.247950  0.115190  1.0  -0.3144
  N  N433  1  0.939760  0.668350  0.787220  1.0  -0.3271
  N  N434  1  0.482110  0.418720  0.551480  1.0  -0.3139
  N  N435  1  0.606430  0.001680  0.120550  1.0  -0.3271
  N  N436  1  0.148780  0.752050  0.884810  1.0  -0.3139
  N  N437  1  0.273090  0.335020  0.453890  1.0  -0.3271
  N  N438  1  0.815440  0.085390  0.218150  1.0  -0.3139
  N  N439  1  0.728590  0.060240  0.787220  1.0  -0.3236
  N  N440  1  0.936610  0.517890  0.551480  1.0  -0.3148
  N  N441  1  0.395260  0.393570  0.120550  1.0  -0.3235
  N  N442  1  0.603280  0.851220  0.884810  1.0  -0.3148
  N  N443  1  0.061920  0.726910  0.453890  1.0  -0.3235
  N  N444  1  0.269940  0.184560  0.218150  1.0  -0.3148
  N  N445  1  0.331650  0.271410  0.787220  1.0  -0.3255
  N  N446  1  0.581280  0.063390  0.551480  1.0  -0.3135
  N  N447  1  0.998320  0.604740  0.120550  1.0  -0.3255
  N  N448  1  0.247950  0.396720  0.884810  1.0  -0.3135
  N  N449  1  0.664980  0.938080  0.453890  1.0  -0.3255
  N  N450  1  0.914610  0.730060  0.218150  1.0  -0.3135
  O  O451  1  0.749240  0.012830  0.078760  1.0  -0.5227
  O  O452  1  0.415910  0.346160  0.412090  1.0  -0.5222
  O  O453  1  0.082570  0.679500  0.745430  1.0  -0.523
  O  O454  1  0.987170  0.736410  0.078760  1.0  -0.5216
  O  O455  1  0.653840  0.069740  0.412090  1.0  -0.5214
  O  O456  1  0.320500  0.403080  0.745430  1.0  -0.5217
  O  O457  1  0.263590  0.250760  0.078760  1.0  -0.5238
  O  O458  1  0.930260  0.584090  0.412090  1.0  -0.5238
  O  O459  1  0.596920  0.917430  0.745430  1.0  -0.5238
  O  O460  1  0.012830  0.749240  0.921240  1.0  -0.5219
  O  O461  1  0.679500  0.082570  0.254570  1.0  -0.5218
  O  O462  1  0.346160  0.415910  0.587910  1.0  -0.5214
  O  O463  1  0.736410  0.987170  0.921240  1.0  -0.5228
  O  O464  1  0.403080  0.320500  0.254570  1.0  -0.5225
  O  O465  1  0.069740  0.653840  0.587910  1.0  -0.5227
  O  O466  1  0.250760  0.263590  0.921240  1.0  -0.5232
  O  O467  1  0.917430  0.596920  0.254570  1.0  -0.5233
  O  O468  1  0.584090  0.930260  0.587910  1.0  -0.5232
