# generated using pymatgen
data_CdH7(C5O2)3
_symmetry_space_group_name_H-M   'P 1'
_cell_length_a   13.94110000
_cell_length_b   17.08170000
_cell_length_c   7.66800000
_cell_angle_alpha   90.00000000
_cell_angle_beta   91.97400000
_cell_angle_gamma   90.00000000
_symmetry_Int_Tables_number   1
_chemical_formula_structural   CdH7(C5O2)3
_chemical_formula_sum   'Cd4 H28 C60 O24'
_cell_volume   1824.95614738
_cell_formula_units_Z   4
loop_
 _symmetry_equiv_pos_site_id
 _symmetry_equiv_pos_as_xyz
  1  'x, y, z'
loop_
 _atom_site_type_symbol
 _atom_site_label
 _atom_site_symmetry_multiplicity
 _atom_site_fract_x
 _atom_site_fract_y
 _atom_site_fract_z
 _atom_site_occupancy
 _atom_site_charge
  Cd  Cd1  1  0.126740  0.522020  0.358930  1.0  1.078
  Cd  Cd2  1  0.873260  0.022020  0.141070  1.0  1.0794
  Cd  Cd3  1  0.873260  0.477980  0.641070  1.0  1.0805
  Cd  Cd4  1  0.126740  0.977980  0.858930  1.0  1.0787
  H  H5  1  0.050000  0.248400  0.694500  1.0  0.1369
  H  H6  1  0.326600  0.186600  0.663600  1.0  0.1329
  H  H7  1  0.250200  0.411800  0.617700  1.0  0.1293
  H  H8  1  0.546200  0.444600  0.413800  1.0  0.1217
  H  H9  1  0.386700  0.408500  0.429800  1.0  0.1515
  H  H10  1  0.465100  0.246100  0.789500  1.0  0.1203
  H  H11  1  0.622500  0.286600  0.776900  1.0  0.1347
  H  H12  1  0.950000  0.748400  0.805500  1.0  0.137
  H  H13  1  0.673400  0.686600  0.836400  1.0  0.1332
  H  H14  1  0.749800  0.911800  0.882300  1.0  0.1293
  H  H15  1  0.453800  0.944600  0.086200  1.0  0.1217
  H  H16  1  0.613300  0.908500  0.070200  1.0  0.1524
  H  H17  1  0.534900  0.746100  0.710500  1.0  0.1205
  H  H18  1  0.377500  0.786600  0.723100  1.0  0.1345
  H  H19  1  0.950000  0.751600  0.305500  1.0  0.1374
  H  H20  1  0.673400  0.813400  0.336400  1.0  0.1334
  H  H21  1  0.749800  0.588200  0.382300  1.0  0.1308
  H  H22  1  0.453800  0.555400  0.586200  1.0  0.1222
  H  H23  1  0.613300  0.591500  0.570200  1.0  0.153
  H  H24  1  0.534900  0.753900  0.210500  1.0  0.1208
  H  H25  1  0.377500  0.713400  0.223100  1.0  0.1343
  H  H26  1  0.050000  0.251600  0.194500  1.0  0.1366
  H  H27  1  0.326600  0.313400  0.163600  1.0  0.133
  H  H28  1  0.250200  0.088200  0.117700  1.0  0.1308
  H  H29  1  0.546200  0.055400  0.913800  1.0  0.1225
  H  H30  1  0.386700  0.091500  0.929800  1.0  0.1519
  H  H31  1  0.465100  0.253900  0.289500  1.0  0.1204
  H  H32  1  0.622500  0.213400  0.276900  1.0  0.1344
  C  C33  1  0.063900  0.402300  0.651100  1.0  0.7353
  C  C34  1  0.160100  0.120800  0.720500  1.0  0.7206
  C  C35  1  0.138800  0.340200  0.654200  1.0  -0.1025
  C  C36  1  0.113900  0.261900  0.680500  1.0  0.0436
  C  C37  1  0.184600  0.203900  0.685800  1.0  -0.1405
  C  C38  1  0.279500  0.225200  0.662700  1.0  -0.0253
  C  C39  1  0.305900  0.303200  0.638200  1.0  0.0676
  C  C40  1  0.233800  0.359700  0.634200  1.0  -0.0378
  C  C41  1  0.701400  0.400400  0.587100  1.0  0.7164
  C  C42  1  0.601100  0.370700  0.593200  1.0  -0.1217
  C  C43  1  0.529500  0.405400  0.491300  1.0  -0.0481
  C  C44  1  0.433600  0.384200  0.500000  1.0  -0.1098
  C  C45  1  0.409300  0.324800  0.618100  1.0  0.0588
  C  C46  1  0.480900  0.287300  0.716600  1.0  -0.0857
  C  C47  1  0.575500  0.310800  0.707000  1.0  -0.018
  C  C48  1  0.936100  0.902300  0.848900  1.0  0.7347
  C  C49  1  0.839900  0.620800  0.779500  1.0  0.7205
  C  C50  1  0.861200  0.840200  0.845800  1.0  -0.1016
  C  C51  1  0.886100  0.761900  0.819500  1.0  0.043
  C  C52  1  0.815400  0.703900  0.814200  1.0  -0.1395
  C  C53  1  0.720500  0.725200  0.837300  1.0  -0.0249
  C  C54  1  0.694100  0.803200  0.861800  1.0  0.0675
  C  C55  1  0.766200  0.859700  0.865800  1.0  -0.039
  C  C56  1  0.298600  0.900400  0.912900  1.0  0.717
  C  C57  1  0.398900  0.870700  0.906800  1.0  -0.1214
  C  C58  1  0.470500  0.905400  0.008700  1.0  -0.0475
  C  C59  1  0.566400  0.884200  0.000000  1.0  -0.1104
  C  C60  1  0.590700  0.824800  0.881900  1.0  0.0581
  C  C61  1  0.519100  0.787300  0.783400  1.0  -0.0845
  C  C62  1  0.424500  0.810800  0.793000  1.0  -0.0185
  C  C63  1  0.936100  0.597700  0.348900  1.0  0.7346
  C  C64  1  0.839900  0.879200  0.279500  1.0  0.7197
  C  C65  1  0.861200  0.659800  0.345800  1.0  -0.1028
  C  C66  1  0.886100  0.738100  0.319500  1.0  0.0429
  C  C67  1  0.815400  0.796100  0.314200  1.0  -0.1393
  C  C68  1  0.720500  0.774800  0.337300  1.0  -0.0257
  C  C69  1  0.694100  0.696800  0.361800  1.0  0.0677
  C  C70  1  0.766200  0.640300  0.365800  1.0  -0.0383
  C  C71  1  0.298600  0.599600  0.412900  1.0  0.7166
  C  C72  1  0.398900  0.629300  0.406800  1.0  -0.1213
  C  C73  1  0.470500  0.594600  0.508700  1.0  -0.047
  C  C74  1  0.566400  0.615800  0.500000  1.0  -0.1117
  C  C75  1  0.590700  0.675200  0.381900  1.0  0.0582
  C  C76  1  0.519100  0.712700  0.283400  1.0  -0.0854
  C  C77  1  0.424500  0.689200  0.293000  1.0  -0.0189
  C  C78  1  0.063900  0.097700  0.151100  1.0  0.7351
  C  C79  1  0.160100  0.379200  0.220500  1.0  0.7221
  C  C80  1  0.138800  0.159800  0.154200  1.0  -0.1019
  C  C81  1  0.113900  0.238100  0.180500  1.0  0.0436
  C  C82  1  0.184600  0.296100  0.185800  1.0  -0.1395
  C  C83  1  0.279500  0.274800  0.162700  1.0  -0.0256
  C  C84  1  0.305900  0.196800  0.138200  1.0  0.0679
  C  C85  1  0.233800  0.140300  0.134200  1.0  -0.0369
  C  C86  1  0.701400  0.099600  0.087100  1.0  0.7164
  C  C87  1  0.601100  0.129300  0.093200  1.0  -0.1215
  C  C88  1  0.529500  0.094600  0.991300  1.0  -0.0471
  C  C89  1  0.433600  0.115800  0.000000  1.0  -0.1108
  C  C90  1  0.409300  0.175200  0.118100  1.0  0.059
  C  C91  1  0.480900  0.212700  0.216600  1.0  -0.0855
  C  C92  1  0.575500  0.189200  0.207000  1.0  -0.0175
  O  O93  1  0.086200  0.471600  0.624700  1.0  -0.6852
  O  O94  1  0.976900  0.381700  0.673200  1.0  -0.6049
  O  O95  1  0.073300  0.102400  0.750200  1.0  -0.6158
  O  O96  1  0.223700  0.070600  0.731400  1.0  -0.5447
  O  O97  1  0.759600  0.382000  0.711300  1.0  -0.6369
  O  O98  1  0.726200  0.443600  0.466700  1.0  -0.5725
  O  O99  1  0.913800  0.971600  0.875300  1.0  -0.6837
  O  O100  1  0.023100  0.881700  0.826800  1.0  -0.6049
  O  O101  1  0.926700  0.602400  0.749800  1.0  -0.6137
  O  O102  1  0.776300  0.570600  0.768600  1.0  -0.5475
  O  O103  1  0.240400  0.882000  0.788700  1.0  -0.6354
  O  O104  1  0.273800  0.943600  0.033300  1.0  -0.5739
  O  O105  1  0.913800  0.528400  0.375300  1.0  -0.6862
  O  O106  1  0.023100  0.618300  0.326800  1.0  -0.6061
  O  O107  1  0.926700  0.897600  0.249800  1.0  -0.6129
  O  O108  1  0.776300  0.929400  0.268600  1.0  -0.5486
  O  O109  1  0.240400  0.618000  0.288700  1.0  -0.6371
  O  O110  1  0.273800  0.556400  0.533300  1.0  -0.5732
  O  O111  1  0.086200  0.028400  0.124700  1.0  -0.6865
  O  O112  1  0.976900  0.118300  0.173200  1.0  -0.6069
  O  O113  1  0.073300  0.397600  0.250200  1.0  -0.6147
  O  O114  1  0.223700  0.429400  0.231400  1.0  -0.548
  O  O115  1  0.759600  0.118000  0.211300  1.0  -0.6361
  O  O116  1  0.726200  0.056400  0.966700  1.0  -0.5724
