# generated using pymatgen
data_ZnH7(C5O2)3
_symmetry_space_group_name_H-M   'P 1'
_cell_length_a   13.65600000
_cell_length_b   16.80700000
_cell_length_c   8.23700000
_cell_angle_alpha   90.00000000
_cell_angle_beta   99.08900000
_cell_angle_gamma   90.00000000
_symmetry_Int_Tables_number   1
_chemical_formula_structural   ZnH7(C5O2)3
_chemical_formula_sum   'Zn4 H28 C60 O24'
_cell_volume   1866.78935863
_cell_formula_units_Z   4
loop_
 _symmetry_equiv_pos_site_id
 _symmetry_equiv_pos_as_xyz
  1  'x, y, z'
loop_
 _atom_site_type_symbol
 _atom_site_label
 _atom_site_symmetry_multiplicity
 _atom_site_fract_x
 _atom_site_fract_y
 _atom_site_fract_z
 _atom_site_occupancy
 _atom_site_charge
  Zn  Zn1  1  0.863310  0.022890  0.871410  1.0  1.0261
  Zn  Zn2  1  0.136690  0.522890  0.628590  1.0  1.0273
  Zn  Zn3  1  0.136690  0.977110  0.128590  1.0  1.0272
  Zn  Zn4  1  0.863310  0.477110  0.371410  1.0  1.0253
  H  H5  1  0.022200  0.243600  0.818400  1.0  0.1214
  H  H6  1  0.244000  0.084600  0.872800  1.0  0.1189
  H  H7  1  0.300000  0.314600  0.795400  1.0  0.1219
  H  H8  1  0.420900  0.254900  0.661200  1.0  0.1058
  H  H9  1  0.582900  0.219300  0.651300  1.0  0.1124
  H  H10  1  0.575200  0.065300  0.017400  1.0  0.111
  H  H11  1  0.408900  0.094800  0.018200  1.0  0.1186
  H  H12  1  0.977800  0.743600  0.681600  1.0  0.122
  H  H13  1  0.756000  0.584600  0.627200  1.0  0.1193
  H  H14  1  0.700000  0.814600  0.704600  1.0  0.1221
  H  H15  1  0.579100  0.754900  0.838800  1.0  0.1059
  H  H16  1  0.417100  0.719300  0.848700  1.0  0.1132
  H  H17  1  0.424800  0.565300  0.482600  1.0  0.1106
  H  H18  1  0.591100  0.594800  0.481800  1.0  0.1183
  H  H19  1  0.977800  0.756400  0.181600  1.0  0.1219
  H  H20  1  0.756000  0.915400  0.127200  1.0  0.1178
  H  H21  1  0.700000  0.685400  0.204600  1.0  0.1217
  H  H22  1  0.579100  0.745100  0.338800  1.0  0.1059
  H  H23  1  0.417100  0.780700  0.348700  1.0  0.1135
  H  H24  1  0.424800  0.934700  0.982600  1.0  0.111
  H  H25  1  0.591100  0.905200  0.981800  1.0  0.1183
  H  H26  1  0.022200  0.256400  0.318400  1.0  0.1213
  H  H27  1  0.244000  0.415400  0.372800  1.0  0.1178
  H  H28  1  0.300000  0.185400  0.295400  1.0  0.122
  H  H29  1  0.420900  0.245100  0.161200  1.0  0.1056
  H  H30  1  0.582900  0.280700  0.151300  1.0  0.1127
  H  H31  1  0.575200  0.434700  0.517400  1.0  0.1106
  H  H32  1  0.408900  0.405200  0.518200  1.0  0.1187
  C  C33  1  0.155700  0.291900  0.803500  1.0  -0.134
  C  C34  1  0.089000  0.231700  0.821500  1.0  0.023
  C  C35  1  0.121400  0.153700  0.844100  1.0  -0.1455
  C  C36  1  0.222000  0.136600  0.853200  1.0  -0.0393
  C  C37  1  0.289700  0.196000  0.833600  1.0  0.0648
  C  C38  1  0.255500  0.274200  0.808700  1.0  -0.0426
  C  C39  1  0.395900  0.176800  0.835600  1.0  0.0712
  C  C40  1  0.450500  0.215000  0.730200  1.0  -0.1164
  C  C41  1  0.548500  0.194500  0.726100  1.0  -0.0577
  C  C42  1  0.595300  0.137900  0.832100  1.0  -0.1296
  C  C43  1  0.543400  0.102100  0.942800  1.0  -0.0351
  C  C44  1  0.443500  0.120400  0.944500  1.0  -0.0831
  C  C45  1  0.120000  0.376700  0.780500  1.0  0.7163
  C  C46  1  0.050200  0.087800  0.862300  1.0  0.7193
  C  C47  1  0.698900  0.111600  0.819000  1.0  0.6794
  C  C48  1  0.844300  0.791900  0.696500  1.0  -0.134
  C  C49  1  0.911000  0.731700  0.678500  1.0  0.0209
  C  C50  1  0.878600  0.653700  0.655900  1.0  -0.1441
  C  C51  1  0.778000  0.636600  0.646800  1.0  -0.0384
  C  C52  1  0.710300  0.696000  0.666400  1.0  0.065
  C  C53  1  0.744500  0.774200  0.691300  1.0  -0.0433
  C  C54  1  0.604100  0.676800  0.664400  1.0  0.0693
  C  C55  1  0.549500  0.715000  0.769800  1.0  -0.1172
  C  C56  1  0.451500  0.694500  0.773900  1.0  -0.0564
  C  C57  1  0.404700  0.637900  0.667900  1.0  -0.1312
  C  C58  1  0.456600  0.602100  0.557200  1.0  -0.0337
  C  C59  1  0.556500  0.620400  0.555500  1.0  -0.0846
  C  C60  1  0.880000  0.876700  0.719500  1.0  0.718
  C  C61  1  0.949800  0.587800  0.637700  1.0  0.7187
  C  C62  1  0.301100  0.611600  0.681000  1.0  0.6798
  C  C63  1  0.844300  0.708100  0.196500  1.0  -0.1353
  C  C64  1  0.911000  0.768300  0.178500  1.0  0.0209
  C  C65  1  0.878600  0.846300  0.155900  1.0  -0.1443
  C  C66  1  0.778000  0.863400  0.146800  1.0  -0.0398
  C  C67  1  0.710300  0.804000  0.166400  1.0  0.0648
  C  C68  1  0.744500  0.725800  0.191300  1.0  -0.0431
  C  C69  1  0.604100  0.823200  0.164400  1.0  0.0695
  C  C70  1  0.549500  0.785000  0.269800  1.0  -0.1167
  C  C71  1  0.451500  0.805500  0.273900  1.0  -0.0567
  C  C72  1  0.404700  0.862100  0.167900  1.0  -0.1311
  C  C73  1  0.456600  0.897900  0.057200  1.0  -0.0337
  C  C74  1  0.556500  0.879600  0.055500  1.0  -0.0836
  C  C75  1  0.880000  0.623300  0.219500  1.0  0.718
  C  C76  1  0.949800  0.912200  0.137700  1.0  0.7179
  C  C77  1  0.301100  0.888400  0.181000  1.0  0.6794
  C  C78  1  0.155700  0.208100  0.303500  1.0  -0.1353
  C  C79  1  0.089000  0.268300  0.321500  1.0  0.0227
  C  C80  1  0.121400  0.346300  0.344100  1.0  -0.1444
  C  C81  1  0.222000  0.363400  0.353200  1.0  -0.0395
  C  C82  1  0.289700  0.304000  0.333600  1.0  0.0645
  C  C83  1  0.255500  0.225800  0.308700  1.0  -0.0433
  C  C84  1  0.395900  0.323200  0.335600  1.0  0.0715
  C  C85  1  0.450500  0.285000  0.230200  1.0  -0.1149
  C  C86  1  0.548500  0.305500  0.226100  1.0  -0.058
  C  C87  1  0.595300  0.362100  0.332100  1.0  -0.1295
  C  C88  1  0.543400  0.397900  0.442800  1.0  -0.0357
  C  C89  1  0.443500  0.379600  0.444500  1.0  -0.0828
  C  C90  1  0.120000  0.123300  0.280500  1.0  0.7169
  C  C91  1  0.050200  0.412200  0.362300  1.0  0.7195
  C  C92  1  0.698900  0.388400  0.319000  1.0  0.6794
  O  O93  1  0.180700  0.427500  0.752100  1.0  -0.5779
  O  O94  1  0.958000  0.103600  0.821600  1.0  -0.6148
  O  O95  1  0.082500  0.021340  0.906100  1.0  -0.5726
  O  O96  1  0.742800  0.068300  0.937100  1.0  -0.5873
  O  O97  1  0.736000  0.129500  0.696900  1.0  -0.4888
  O  O98  1  0.033800  0.391300  0.786200  1.0  -0.485
  O  O99  1  0.819300  0.927500  0.747900  1.0  -0.5781
  O  O100  1  0.042000  0.603600  0.678400  1.0  -0.6152
  O  O101  1  0.917500  0.521340  0.593900  1.0  -0.5727
  O  O102  1  0.257200  0.568300  0.562900  1.0  -0.5872
  O  O103  1  0.264000  0.629500  0.803100  1.0  -0.4914
  O  O104  1  0.966200  0.891300  0.713800  1.0  -0.4825
  O  O105  1  0.819300  0.572500  0.247900  1.0  -0.5781
  O  O106  1  0.042000  0.896400  0.178400  1.0  -0.6143
  O  O107  1  0.917500  0.978660  0.093900  1.0  -0.5721
  O  O108  1  0.257200  0.931700  0.062900  1.0  -0.5875
  O  O109  1  0.264000  0.870500  0.303100  1.0  -0.4911
  O  O110  1  0.966200  0.608700  0.213800  1.0  -0.483
  O  O111  1  0.180700  0.072500  0.252100  1.0  -0.578
  O  O112  1  0.958000  0.396400  0.321600  1.0  -0.6145
  O  O113  1  0.082500  0.478660  0.406100  1.0  -0.5714
  O  O114  1  0.742800  0.431700  0.437100  1.0  -0.5869
  O  O115  1  0.736000  0.370500  0.196900  1.0  -0.4888
  O  O116  1  0.033800  0.108700  0.286200  1.0  -0.484
