# generated using pymatgen
data_MgHC5(NO2)2
_symmetry_space_group_name_H-M   'P 1'
_cell_length_a   27.38400000
_cell_length_b   27.38400000
_cell_length_c   9.11400000
_cell_angle_alpha   90.00000000
_cell_angle_beta   90.00000000
_cell_angle_gamma   120.00000000
_symmetry_Int_Tables_number   1
_chemical_formula_structural   MgHC5(NO2)2
_chemical_formula_sum   'Mg18 H18 C90 N36 O72'
_cell_volume   5918.79677096
_cell_formula_units_Z   18
loop_
 _symmetry_equiv_pos_site_id
 _symmetry_equiv_pos_as_xyz
  1  'x, y, z'
loop_
 _atom_site_type_symbol
 _atom_site_label
 _atom_site_symmetry_multiplicity
 _atom_site_fract_x
 _atom_site_fract_y
 _atom_site_fract_z
 _atom_site_occupancy
 _atom_site_charge
  Mg  Mg1  1  0.110460  0.122530  0.085400  1.0  1.5655
  Mg  Mg2  1  0.777130  0.455860  0.418730  1.0  1.5655
  Mg  Mg3  1  0.443790  0.789200  0.752070  1.0  1.5655
  Mg  Mg4  1  0.877470  0.987930  0.085400  1.0  1.565
  Mg  Mg5  1  0.544140  0.321260  0.418730  1.0  1.565
  Mg  Mg6  1  0.210800  0.654600  0.752070  1.0  1.565
  Mg  Mg7  1  0.012070  0.889540  0.085400  1.0  1.5661
  Mg  Mg8  1  0.678740  0.222870  0.418730  1.0  1.5661
  Mg  Mg9  1  0.345400  0.556210  0.752070  1.0  1.5661
  Mg  Mg10  1  0.889540  0.877470  0.914600  1.0  1.5656
  Mg  Mg11  1  0.556210  0.210800  0.247930  1.0  1.5656
  Mg  Mg12  1  0.222870  0.544140  0.581270  1.0  1.5656
  Mg  Mg13  1  0.122530  0.012070  0.914600  1.0  1.5662
  Mg  Mg14  1  0.789200  0.345400  0.247930  1.0  1.5662
  Mg  Mg15  1  0.455860  0.678740  0.581270  1.0  1.5662
  Mg  Mg16  1  0.987930  0.110460  0.914600  1.0  1.5683
  Mg  Mg17  1  0.654600  0.443790  0.247930  1.0  1.5683
  Mg  Mg18  1  0.321260  0.777130  0.581270  1.0  1.5683
  H  H19  1  0.065600  0.985500  0.304900  1.0  -0.0124
  H  H20  1  0.732270  0.318830  0.638230  1.0  -0.0124
  H  H21  1  0.398930  0.652170  0.971570  1.0  -0.0124
  H  H22  1  0.014500  0.080100  0.304900  1.0  -0.0115
  H  H23  1  0.681170  0.413430  0.638230  1.0  -0.0115
  H  H24  1  0.347830  0.746770  0.971570  1.0  -0.0115
  H  H25  1  0.919900  0.934400  0.304900  1.0  -0.0105
  H  H26  1  0.586570  0.267730  0.638230  1.0  -0.0105
  H  H27  1  0.253230  0.601070  0.971570  1.0  -0.0105
  H  H28  1  0.934400  0.014500  0.695100  1.0  -0.0122
  H  H29  1  0.601070  0.347830  0.028430  1.0  -0.0122
  H  H30  1  0.267730  0.681170  0.361770  1.0  -0.0122
  H  H31  1  0.985500  0.919900  0.695100  1.0  -0.0121
  H  H32  1  0.652170  0.253230  0.028430  1.0  -0.0121
  H  H33  1  0.318830  0.586570  0.361770  1.0  -0.0121
  H  H34  1  0.080100  0.065600  0.695100  1.0  -0.0116
  H  H35  1  0.746770  0.398930  0.028430  1.0  -0.0116
  H  H36  1  0.413430  0.732270  0.361770  1.0  -0.0116
  C  C37  1  0.217260  0.116790  0.071000  1.0  0.709
  C  C38  1  0.277080  0.142220  0.117800  1.0  -0.1985
  C  C39  1  0.305270  0.196460  0.174400  1.0  0.2519
  C  C40  1  0.305590  0.111500  0.110400  1.0  0.1394
  C  C41  1  0.077260  0.005060  0.216600  1.0  0.6915
  C  C42  1  0.883930  0.450120  0.404330  1.0  0.709
  C  C43  1  0.943750  0.475550  0.451130  1.0  -0.1984
  C  C44  1  0.971940  0.529790  0.507730  1.0  0.251
  C  C45  1  0.972260  0.444830  0.443730  1.0  0.1378
  C  C46  1  0.743930  0.338390  0.549930  1.0  0.6915
  C  C47  1  0.550590  0.783460  0.737670  1.0  0.709
  C  C48  1  0.610410  0.808890  0.784470  1.0  -0.1985
  C  C49  1  0.638600  0.863130  0.841070  1.0  0.2519
  C  C50  1  0.638920  0.778170  0.777070  1.0  0.1394
  C  C51  1  0.410590  0.671730  0.883270  1.0  0.6915
  C  C52  1  0.883210  0.100470  0.071000  1.0  0.7088
  C  C53  1  0.857780  0.134860  0.117800  1.0  -0.1988
  C  C54  1  0.803540  0.108810  0.174400  1.0  0.253
  C  C55  1  0.888500  0.194090  0.110400  1.0  0.1422
  C  C56  1  0.994940  0.072200  0.216600  1.0  0.6887
  C  C57  1  0.549880  0.433800  0.404330  1.0  0.7088
  C  C58  1  0.524450  0.468190  0.451130  1.0  -0.1987
  C  C59  1  0.470210  0.442140  0.507730  1.0  0.2544
  C  C60  1  0.555170  0.527420  0.443730  1.0  0.1426
  C  C61  1  0.661610  0.405530  0.549930  1.0  0.6887
  C  C62  1  0.216540  0.767140  0.737670  1.0  0.7088
  C  C63  1  0.191110  0.801530  0.784470  1.0  -0.1988
  C  C64  1  0.136870  0.775480  0.841070  1.0  0.253
  C  C65  1  0.221830  0.860760  0.777070  1.0  0.1422
  C  C66  1  0.328270  0.738870  0.883270  1.0  0.6887
  C  C67  1  0.899530  0.782740  0.071000  1.0  0.7107
  C  C68  1  0.865140  0.722920  0.117800  1.0  -0.1994
  C  C69  1  0.891190  0.694730  0.174400  1.0  0.2517
  C  C70  1  0.805910  0.694410  0.110400  1.0  0.1397
  C  C71  1  0.927800  0.922740  0.216600  1.0  0.6891
  C  C72  1  0.566200  0.116070  0.404330  1.0  0.7108
  C  C73  1  0.531810  0.056250  0.451130  1.0  -0.1995
  C  C74  1  0.557860  0.028060  0.507730  1.0  0.251
  C  C75  1  0.472580  0.027740  0.443730  1.0  0.1385
  C  C76  1  0.594470  0.256070  0.549930  1.0  0.6891
  C  C77  1  0.232860  0.449410  0.737670  1.0  0.7107
  C  C78  1  0.198470  0.389590  0.784470  1.0  -0.1994
  C  C79  1  0.224520  0.361400  0.841070  1.0  0.2517
  C  C80  1  0.139240  0.361080  0.777070  1.0  0.1397
  C  C81  1  0.261130  0.589410  0.883270  1.0  0.6891
  C  C82  1  0.782740  0.883210  0.929000  1.0  0.7091
  C  C83  1  0.722920  0.857780  0.882200  1.0  -0.1992
  C  C84  1  0.694730  0.803540  0.825600  1.0  0.2527
  C  C85  1  0.694410  0.888500  0.889600  1.0  0.1405
  C  C86  1  0.922740  0.994940  0.783400  1.0  0.6905
  C  C87  1  0.449410  0.216540  0.262330  1.0  0.7091
  C  C88  1  0.389590  0.191110  0.215530  1.0  -0.1992
  C  C89  1  0.361400  0.136870  0.158930  1.0  0.2527
  C  C90  1  0.361080  0.221830  0.222930  1.0  0.1405
  C  C91  1  0.589410  0.328270  0.116730  1.0  0.6905
  C  C92  1  0.116070  0.549880  0.595670  1.0  0.7091
  C  C93  1  0.056250  0.524450  0.548870  1.0  -0.1991
  C  C94  1  0.028060  0.470210  0.492270  1.0  0.2518
  C  C95  1  0.027740  0.555170  0.556270  1.0  0.1389
  C  C96  1  0.256070  0.661610  0.450070  1.0  0.6905
  C  C97  1  0.116790  0.899530  0.929000  1.0  0.7099
  C  C98  1  0.142220  0.865140  0.882200  1.0  -0.1979
  C  C99  1  0.196460  0.891190  0.825600  1.0  0.2514
  C  C100  1  0.111500  0.805910  0.889600  1.0  0.139
  C  C101  1  0.005060  0.927800  0.783400  1.0  0.6881
  C  C102  1  0.783460  0.232860  0.262330  1.0  0.7099
  C  C103  1  0.808890  0.198470  0.215530  1.0  -0.1979
  C  C104  1  0.863130  0.224520  0.158930  1.0  0.2514
  C  C105  1  0.778170  0.139240  0.222930  1.0  0.139
  C  C106  1  0.671730  0.261130  0.116730  1.0  0.6881
  C  C107  1  0.450120  0.566200  0.595670  1.0  0.7099
  C  C108  1  0.475550  0.531810  0.548870  1.0  -0.1978
  C  C109  1  0.529790  0.557860  0.492270  1.0  0.2528
  C  C110  1  0.444830  0.472580  0.556270  1.0  0.1396
  C  C111  1  0.338390  0.594470  0.450070  1.0  0.6881
  C  C112  1  0.100470  0.217260  0.929000  1.0  0.7103
  C  C113  1  0.134860  0.277080  0.882200  1.0  -0.1992
  C  C114  1  0.108810  0.305270  0.825600  1.0  0.2523
  C  C115  1  0.194090  0.305590  0.889600  1.0  0.1413
  C  C116  1  0.072200  0.077260  0.783400  1.0  0.688
  C  C117  1  0.767140  0.550590  0.262330  1.0  0.7103
  C  C118  1  0.801530  0.610410  0.215530  1.0  -0.1992
  C  C119  1  0.775480  0.638600  0.158930  1.0  0.2523
  C  C120  1  0.860760  0.638920  0.222930  1.0  0.1413
  C  C121  1  0.738870  0.410590  0.116730  1.0  0.688
  C  C122  1  0.433800  0.883930  0.595670  1.0  0.7103
  C  C123  1  0.468190  0.943750  0.548870  1.0  -0.1993
  C  C124  1  0.442140  0.971940  0.492270  1.0  0.2516
  C  C125  1  0.527420  0.972260  0.556270  1.0  0.1401
  C  C126  1  0.405530  0.743930  0.450070  1.0  0.688
  N  N127  1  0.283000  0.056500  0.051600  1.0  -0.2759
  N  N128  1  0.282000  0.227200  0.197000  1.0  -0.2956
  N  N129  1  0.949670  0.389830  0.384930  1.0  -0.2759
  N  N130  1  0.948670  0.560530  0.530330  1.0  -0.2951
  N  N131  1  0.616330  0.723170  0.718270  1.0  -0.2759
  N  N132  1  0.615330  0.893870  0.863670  1.0  -0.2955
  N  N133  1  0.943500  0.226500  0.051600  1.0  -0.2736
  N  N134  1  0.772800  0.054800  0.197000  1.0  -0.2942
  N  N135  1  0.610170  0.559830  0.384930  1.0  -0.2736
  N  N136  1  0.439470  0.388130  0.530330  1.0  -0.2948
  N  N137  1  0.276830  0.893170  0.718270  1.0  -0.2736
  N  N138  1  0.106130  0.721470  0.863670  1.0  -0.2943
  N  N139  1  0.773500  0.717000  0.051600  1.0  -0.272
  N  N140  1  0.945200  0.718000  0.197000  1.0  -0.295
  N  N141  1  0.440170  0.050330  0.384930  1.0  -0.272
  N  N142  1  0.611870  0.051330  0.530330  1.0  -0.295
  N  N143  1  0.106830  0.383670  0.718270  1.0  -0.272
  N  N144  1  0.278530  0.384670  0.863670  1.0  -0.295
  N  N145  1  0.717000  0.943500  0.948400  1.0  -0.2785
  N  N146  1  0.718000  0.772800  0.803000  1.0  -0.2947
  N  N147  1  0.383670  0.276830  0.281730  1.0  -0.2785
  N  N148  1  0.384670  0.106130  0.136330  1.0  -0.2947
  N  N149  1  0.050330  0.610170  0.615070  1.0  -0.2785
  N  N150  1  0.051330  0.439470  0.469670  1.0  -0.294
  N  N151  1  0.056500  0.773500  0.948400  1.0  -0.2743
  N  N152  1  0.227200  0.945200  0.803000  1.0  -0.2947
  N  N153  1  0.723170  0.106830  0.281730  1.0  -0.2743
  N  N154  1  0.893870  0.278530  0.136330  1.0  -0.2947
  N  N155  1  0.389830  0.440170  0.615070  1.0  -0.2743
  N  N156  1  0.560530  0.611870  0.469670  1.0  -0.2952
  N  N157  1  0.226500  0.283000  0.948400  1.0  -0.2753
  N  N158  1  0.054800  0.282000  0.803000  1.0  -0.2944
  N  N159  1  0.893170  0.616330  0.281730  1.0  -0.2753
  N  N160  1  0.721470  0.615330  0.136330  1.0  -0.2944
  N  N161  1  0.559830  0.949670  0.615070  1.0  -0.2754
  N  N162  1  0.388130  0.948670  0.469670  1.0  -0.2944
  O  O163  1  0.194470  0.146810  0.079000  1.0  -0.6145
  O  O164  1  0.192850  0.066200  0.028100  1.0  -0.6317
  O  O165  1  0.095990  0.056420  0.222000  1.0  -0.6523
  O  O166  1  0.072360  0.976660  0.103900  1.0  -0.6777
  O  O167  1  0.861140  0.480140  0.412330  1.0  -0.6144
  O  O168  1  0.859520  0.399530  0.361430  1.0  -0.6317
  O  O169  1  0.762660  0.389750  0.555330  1.0  -0.6523
  O  O170  1  0.739030  0.309990  0.437230  1.0  -0.6777
  O  O171  1  0.527800  0.813480  0.745670  1.0  -0.6145
  O  O172  1  0.526180  0.732870  0.694770  1.0  -0.6317
  O  O173  1  0.429320  0.723090  0.888670  1.0  -0.6523
  O  O174  1  0.405690  0.643330  0.770570  1.0  -0.6777
  O  O175  1  0.853190  0.047660  0.079000  1.0  -0.6173
  O  O176  1  0.933800  0.126650  0.028100  1.0  -0.6312
  O  O177  1  0.943580  0.039570  0.222000  1.0  -0.6526
  O  O178  1  0.023340  0.095700  0.103900  1.0  -0.6808
  O  O179  1  0.519860  0.380990  0.412330  1.0  -0.6173
  O  O180  1  0.600470  0.459980  0.361430  1.0  -0.6312
  O  O181  1  0.610250  0.372900  0.555330  1.0  -0.6526
  O  O182  1  0.690010  0.429030  0.437230  1.0  -0.6808
  O  O183  1  0.186520  0.714330  0.745670  1.0  -0.6173
  O  O184  1  0.267130  0.793320  0.694770  1.0  -0.6312
  O  O185  1  0.276910  0.706240  0.888670  1.0  -0.6526
  O  O186  1  0.356670  0.762370  0.770570  1.0  -0.6808
  O  O187  1  0.952340  0.805530  0.079000  1.0  -0.6153
  O  O188  1  0.873350  0.807150  0.028100  1.0  -0.6287
  O  O189  1  0.960430  0.904010  0.222000  1.0  -0.6522
  O  O190  1  0.904300  0.927640  0.103900  1.0  -0.6775
  O  O191  1  0.619010  0.138860  0.412330  1.0  -0.6152
  O  O192  1  0.540020  0.140480  0.361430  1.0  -0.6287
  O  O193  1  0.627100  0.237340  0.555330  1.0  -0.6522
  O  O194  1  0.570970  0.260970  0.437230  1.0  -0.6775
  O  O195  1  0.285670  0.472200  0.745670  1.0  -0.6153
  O  O196  1  0.206680  0.473820  0.694770  1.0  -0.6287
  O  O197  1  0.293760  0.570680  0.888670  1.0  -0.6522
  O  O198  1  0.237630  0.594310  0.770570  1.0  -0.6775
  O  O199  1  0.805530  0.853190  0.921000  1.0  -0.6154
  O  O200  1  0.807150  0.933800  0.971900  1.0  -0.6322
  O  O201  1  0.904010  0.943580  0.778000  1.0  -0.6544
  O  O202  1  0.927640  0.023340  0.896100  1.0  -0.6782
  O  O203  1  0.472200  0.186520  0.254330  1.0  -0.6155
  O  O204  1  0.473820  0.267130  0.305230  1.0  -0.6322
  O  O205  1  0.570680  0.276910  0.111330  1.0  -0.6544
  O  O206  1  0.594310  0.356670  0.229430  1.0  -0.6782
  O  O207  1  0.138860  0.519860  0.587670  1.0  -0.6153
  O  O208  1  0.140480  0.600470  0.638570  1.0  -0.6322
  O  O209  1  0.237340  0.610250  0.444670  1.0  -0.6544
  O  O210  1  0.260970  0.690010  0.562770  1.0  -0.6782
  O  O211  1  0.146810  0.952340  0.921000  1.0  -0.6169
  O  O212  1  0.066200  0.873350  0.971900  1.0  -0.6287
  O  O213  1  0.056420  0.960430  0.778000  1.0  -0.6521
  O  O214  1  0.976660  0.904300  0.896100  1.0  -0.6802
  O  O215  1  0.813480  0.285670  0.254330  1.0  -0.6169
  O  O216  1  0.732870  0.206680  0.305230  1.0  -0.6287
  O  O217  1  0.723090  0.293760  0.111330  1.0  -0.6521
  O  O218  1  0.643330  0.237630  0.229430  1.0  -0.6802
  O  O219  1  0.480140  0.619010  0.587670  1.0  -0.617
  O  O220  1  0.399530  0.540020  0.638570  1.0  -0.6286
  O  O221  1  0.389750  0.627100  0.444670  1.0  -0.6521
  O  O222  1  0.309990  0.570970  0.562770  1.0  -0.6802
  O  O223  1  0.047660  0.194470  0.921000  1.0  -0.6147
  O  O224  1  0.126650  0.192850  0.971900  1.0  -0.6292
  O  O225  1  0.039570  0.095990  0.778000  1.0  -0.6517
  O  O226  1  0.095700  0.072360  0.896100  1.0  -0.6771
  O  O227  1  0.714330  0.527800  0.254330  1.0  -0.6147
  O  O228  1  0.793320  0.526180  0.305230  1.0  -0.6292
  O  O229  1  0.706240  0.429320  0.111330  1.0  -0.6517
  O  O230  1  0.762370  0.405690  0.229430  1.0  -0.6771
  O  O231  1  0.380990  0.861140  0.587670  1.0  -0.6147
  O  O232  1  0.459980  0.859520  0.638570  1.0  -0.6292
  O  O233  1  0.372900  0.762660  0.444670  1.0  -0.6517
  O  O234  1  0.429030  0.739030  0.562770  1.0  -0.6771
