# generated using pymatgen
data_CoH28C41(NO)4
_symmetry_space_group_name_H-M   'P 1'
_cell_length_a   9.92280000
_cell_length_b   17.55420000
_cell_length_c   23.92230000
_cell_angle_alpha   91.92000000
_cell_angle_beta   90.00000000
_cell_angle_gamma   90.00000000
_symmetry_Int_Tables_number   1
_chemical_formula_structural   CoH28C41(NO)4
_chemical_formula_sum   'Co4 H112 C164 N16 O16'
_cell_volume   4164.60986113
_cell_formula_units_Z   4
loop_
 _symmetry_equiv_pos_site_id
 _symmetry_equiv_pos_as_xyz
  1  'x, y, z'
loop_
 _atom_site_type_symbol
 _atom_site_label
 _atom_site_symmetry_multiplicity
 _atom_site_fract_x
 _atom_site_fract_y
 _atom_site_fract_z
 _atom_site_occupancy
 _atom_site_charge
  Co  Co1  1  0.687830  0.759490  0.632320  1.0  0.8397
  Co  Co2  1  0.187830  0.740510  0.867680  1.0  0.8399
  Co  Co3  1  0.312170  0.240510  0.367680  1.0  0.84
  Co  Co4  1  0.812170  0.259490  0.132320  1.0  0.8396
  H  H5  1  0.649200  0.597400  0.484600  1.0  0.0931
  H  H6  1  0.623700  0.500600  0.418300  1.0  0.1014
  H  H7  1  0.702700  0.951100  0.529300  1.0  0.1071
  H  H8  1  0.300200  0.946100  0.528700  1.0  0.1022
  H  H9  1  0.696900  0.708800  0.757300  1.0  0.0765
  H  H10  1  0.746600  0.604800  0.808100  1.0  0.1233
  H  H11  1  0.892700  0.504600  0.669700  1.0  0.1199
  H  H12  1  0.843800  0.612300  0.622700  1.0  0.0854
  H  H13  1  0.862800  0.516200  0.852900  1.0  0.0997
  H  H14  1  0.926300  0.408600  0.897900  1.0  0.1078
  H  H15  1  0.913600  0.288700  0.752500  1.0  0.1206
  H  H16  1  0.851500  0.396900  0.707700  1.0  0.1087
  H  H17  1  0.592600  0.915600  0.670500  1.0  0.0632
  H  H18  1  0.646400  0.024300  0.719500  1.0  0.1052
  H  H19  1  0.969500  0.917900  0.778200  1.0  0.1113
  H  H20  1  0.905500  0.811800  0.727000  1.0  0.0697
  H  H21  1  0.669800  0.105300  0.787900  1.0  0.0986
  H  H22  1  0.729500  0.218600  0.830300  1.0  0.1178
  H  H23  1  0.110000  0.149200  0.839100  1.0  0.1076
  H  H24  1  0.049600  0.033700  0.797600  1.0  0.097
  H  H25  1  0.728800  0.268600  0.013100  1.0  0.0783
  H  H26  1  0.551300  0.275700  0.953800  1.0  0.1194
  H  H27  1  0.305700  0.274000  0.085400  1.0  0.125
  H  H28  1  0.489400  0.261800  0.140600  1.0  0.0681
  H  H29  1  0.155900  0.223400  0.021500  1.0  0.1066
  H  H30  1  0.977900  0.220800  0.959800  1.0  0.1154
  H  H31  1  0.198100  0.336800  0.851900  1.0  0.1172
  H  H32  1  0.374900  0.338600  0.913800  1.0  0.108
  H  H33  1  0.149200  0.902600  0.015400  1.0  0.0936
  H  H34  1  0.123700  0.999400  0.081700  1.0  0.1017
  H  H35  1  0.202700  0.548900  0.970700  1.0  0.107
  H  H36  1  0.800200  0.553900  0.971300  1.0  0.102
  H  H37  1  0.196900  0.791200  0.742700  1.0  0.0763
  H  H38  1  0.246600  0.895200  0.691900  1.0  0.1245
  H  H39  1  0.392700  0.995400  0.830300  1.0  0.1218
  H  H40  1  0.343800  0.887700  0.877300  1.0  0.0849
  H  H41  1  0.362800  0.983800  0.647100  1.0  0.0993
  H  H42  1  0.426300  0.091400  0.602100  1.0  0.1094
  H  H43  1  0.413600  0.211300  0.747500  1.0  0.12
  H  H44  1  0.351500  0.103100  0.792300  1.0  0.1091
  H  H45  1  0.092600  0.584400  0.829500  1.0  0.0635
  H  H46  1  0.146400  0.475700  0.780500  1.0  0.1049
  H  H47  1  0.469500  0.582100  0.721800  1.0  0.1115
  H  H48  1  0.405500  0.688200  0.773000  1.0  0.07
  H  H49  1  0.169800  0.394700  0.712100  1.0  0.0985
  H  H50  1  0.229500  0.281400  0.669700  1.0  0.1175
  H  H51  1  0.610000  0.350800  0.660900  1.0  0.1076
  H  H52  1  0.549600  0.466300  0.702400  1.0  0.097
  H  H53  1  0.228800  0.231400  0.486900  1.0  0.0788
  H  H54  1  0.051300  0.224300  0.546200  1.0  0.1195
  H  H55  1  0.805700  0.226000  0.414600  1.0  0.1249
  H  H56  1  0.989400  0.238200  0.359400  1.0  0.0679
  H  H57  1  0.655900  0.276600  0.478500  1.0  0.107
  H  H58  1  0.477900  0.279200  0.540200  1.0  0.1155
  H  H59  1  0.698100  0.163200  0.648100  1.0  0.1167
  H  H60  1  0.874900  0.161400  0.586200  1.0  0.1075
  H  H61  1  0.350800  0.402600  0.515400  1.0  0.0932
  H  H62  1  0.376300  0.499400  0.581700  1.0  0.1021
  H  H63  1  0.297300  0.048900  0.470700  1.0  0.1069
  H  H64  1  0.699800  0.053900  0.471300  1.0  0.1028
  H  H65  1  0.303100  0.291200  0.242700  1.0  0.0763
  H  H66  1  0.253400  0.395200  0.191900  1.0  0.1243
  H  H67  1  0.107300  0.495400  0.330300  1.0  0.1217
  H  H68  1  0.156200  0.387700  0.377300  1.0  0.0854
  H  H69  1  0.137200  0.483800  0.147100  1.0  0.0996
  H  H70  1  0.073700  0.591400  0.102100  1.0  0.1091
  H  H71  1  0.086400  0.711300  0.247500  1.0  0.1202
  H  H72  1  0.148500  0.603100  0.292300  1.0  0.1088
  H  H73  1  0.407400  0.084400  0.329500  1.0  0.063
  H  H74  1  0.353600  0.975700  0.280500  1.0  0.1052
  H  H75  1  0.030500  0.082100  0.221800  1.0  0.1118
  H  H76  1  0.094500  0.188200  0.273000  1.0  0.0702
  H  H77  1  0.330200  0.894700  0.212100  1.0  0.0991
  H  H78  1  0.270500  0.781400  0.169700  1.0  0.118
  H  H79  1  0.890000  0.850800  0.160900  1.0  0.1084
  H  H80  1  0.950400  0.966300  0.202400  1.0  0.0972
  H  H81  1  0.271200  0.731400  0.986900  1.0  0.0789
  H  H82  1  0.448700  0.724300  0.046200  1.0  0.1193
  H  H83  1  0.694300  0.726000  0.914600  1.0  0.1253
  H  H84  1  0.510600  0.738200  0.859400  1.0  0.0673
  H  H85  1  0.844100  0.776600  0.978500  1.0  0.1066
  H  H86  1  0.022100  0.779200  0.040200  1.0  0.1156
  H  H87  1  0.801900  0.663200  0.148100  1.0  0.1173
  H  H88  1  0.625100  0.661400  0.086200  1.0  0.1078
  H  H89  1  0.850800  0.097400  0.984600  1.0  0.0929
  H  H90  1  0.876300  0.000600  0.918300  1.0  0.1012
  H  H91  1  0.797300  0.451100  0.029300  1.0  0.1069
  H  H92  1  0.199800  0.446100  0.028700  1.0  0.1027
  H  H93  1  0.803100  0.208800  0.257300  1.0  0.0763
  H  H94  1  0.753400  0.104800  0.308100  1.0  0.1236
  H  H95  1  0.607300  0.004600  0.169700  1.0  0.1196
  H  H96  1  0.656200  0.112300  0.122700  1.0  0.0856
  H  H97  1  0.637200  0.016200  0.352900  1.0  0.0993
  H  H98  1  0.573700  0.908600  0.397900  1.0  0.1077
  H  H99  1  0.586400  0.788700  0.252500  1.0  0.1207
  H  H100  1  0.648500  0.896900  0.207700  1.0  0.1084
  H  H101  1  0.907400  0.415600  0.170500  1.0  0.0628
  H  H102  1  0.853600  0.524300  0.219500  1.0  0.1052
  H  H103  1  0.530500  0.417900  0.278200  1.0  0.1114
  H  H104  1  0.594500  0.311800  0.227000  1.0  0.0704
  H  H105  1  0.830200  0.605300  0.287900  1.0  0.0995
  H  H106  1  0.770500  0.718600  0.330300  1.0  0.1181
  H  H107  1  0.390000  0.649200  0.339100  1.0  0.1082
  H  H108  1  0.450400  0.533700  0.297600  1.0  0.0968
  H  H109  1  0.771200  0.768600  0.513100  1.0  0.0789
  H  H110  1  0.948700  0.775700  0.453800  1.0  0.1193
  H  H111  1  0.194300  0.774000  0.585400  1.0  0.1258
  H  H112  1  0.010600  0.761800  0.640600  1.0  0.0677
  H  H113  1  0.344100  0.723400  0.521500  1.0  0.1068
  H  H114  1  0.522100  0.720800  0.459800  1.0  0.1154
  H  H115  1  0.301900  0.836800  0.351900  1.0  0.1173
  H  H116  1  0.125100  0.838600  0.413800  1.0  0.1078
  C  C117  1  0.528000  0.624100  0.582640  1.0  0.6708
  C  C118  1  0.515100  0.560010  0.539560  1.0  -0.1186
  C  C119  1  0.588400  0.558310  0.490990  1.0  -0.0556
  C  C120  1  0.574000  0.500000  0.451220  1.0  -0.0713
  C  C121  1  0.505400  0.872380  0.574040  1.0  0.6498
  C  C122  1  0.620700  0.970590  0.517470  1.0  -0.0606
  C  C123  1  0.501800  0.937630  0.534690  1.0  -0.1263
  C  C124  1  0.380900  0.967490  0.517230  1.0  -0.0544
  C  C125  1  0.737000  0.667040  0.739020  1.0  0.1716
  C  C126  1  0.765700  0.604090  0.769990  1.0  -0.2069
  C  C127  1  0.822800  0.539670  0.744440  1.0  0.1123
  C  C128  1  0.852000  0.545440  0.688800  1.0  -0.2061
  C  C129  1  0.822000  0.610760  0.660430  1.0  0.1799
  C  C130  1  0.853900  0.469470  0.774870  1.0  -0.0259
  C  C131  1  0.874200  0.470740  0.832410  1.0  -0.0654
  C  C132  1  0.910900  0.406040  0.859580  1.0  -0.1794
  C  C133  1  0.925100  0.337020  0.830190  1.0  0.1691
  C  C134  1  0.903600  0.334390  0.772880  1.0  -0.1949
  C  C135  1  0.867400  0.399600  0.746060  1.0  -0.0938
  C  C136  1  0.671200  0.916300  0.691740  1.0  0.1787
  C  C137  1  0.702300  0.981990  0.721650  1.0  -0.2028
  C  C138  1  0.816500  0.985990  0.755130  1.0  0.1121
  C  C139  1  0.892400  0.919500  0.756230  1.0  -0.1844
  C  C140  1  0.853400  0.855620  0.724560  1.0  0.1767
  C  C141  1  0.853900  0.056940  0.785960  1.0  -0.0038
  C  C142  1  0.759500  0.113790  0.797460  1.0  -0.0888
  C  C143  1  0.795400  0.182120  0.822600  1.0  -0.1952
  C  C144  1  0.927300  0.197640  0.836680  1.0  0.1832
  C  C145  1  0.021200  0.140950  0.828090  1.0  -0.1736
  C  C146  1  0.984600  0.071410  0.803020  1.0  -0.0664
  C  C147  1  0.642200  0.268800  0.028040  1.0  0.1804
  C  C148  1  0.535600  0.273800  0.992020  1.0  -0.222
  C  C149  1  0.404700  0.276060  0.011950  1.0  0.115
  C  C150  1  0.391000  0.272200  0.069310  1.0  -0.2027
  C  C151  1  0.502500  0.265600  0.102320  1.0  0.1632
  C  C152  1  0.286400  0.278880  0.974030  1.0  -0.0005
  C  C153  1  0.165800  0.245500  0.986910  1.0  -0.0636
  C  C154  1  0.058600  0.243800  0.949940  1.0  -0.1708
  C  C155  1  0.071700  0.276240  0.898430  1.0  0.1668
  C  C156  1  0.189600  0.312700  0.885730  1.0  -0.1806
  C  C157  1  0.295500  0.313800  0.923030  1.0  -0.0951
  C  C158  1  0.028000  0.875900  0.917360  1.0  0.6718
  C  C159  1  0.015100  0.939990  0.960440  1.0  -0.1184
  C  C160  1  0.088400  0.941690  0.009010  1.0  -0.0567
  C  C161  1  0.074000  0.000000  0.048780  1.0  -0.0703
  C  C162  1  0.005400  0.627620  0.925960  1.0  0.6496
  C  C163  1  0.120700  0.529410  0.982530  1.0  -0.0608
  C  C164  1  0.001800  0.562370  0.965310  1.0  -0.1264
  C  C165  1  0.880900  0.532510  0.982770  1.0  -0.0542
  C  C166  1  0.237000  0.832960  0.760980  1.0  0.172
  C  C167  1  0.265700  0.895910  0.730010  1.0  -0.205
  C  C168  1  0.322800  0.960330  0.755560  1.0  0.1129
  C  C169  1  0.352000  0.954560  0.811200  1.0  -0.2061
  C  C170  1  0.322000  0.889240  0.839570  1.0  0.1798
  C  C171  1  0.353900  0.030530  0.725130  1.0  -0.0252
  C  C172  1  0.374200  0.029260  0.667590  1.0  -0.0646
  C  C173  1  0.410900  0.093960  0.640420  1.0  -0.1802
  C  C174  1  0.425100  0.162980  0.669810  1.0  0.1686
  C  C175  1  0.403600  0.165610  0.727120  1.0  -0.1968
  C  C176  1  0.367400  0.100400  0.753940  1.0  -0.093
  C  C177  1  0.171200  0.583700  0.808260  1.0  0.1791
  C  C178  1  0.202300  0.518010  0.778350  1.0  -0.2033
  C  C179  1  0.316500  0.514010  0.744870  1.0  0.1123
  C  C180  1  0.392400  0.580500  0.743770  1.0  -0.1839
  C  C181  1  0.353400  0.644380  0.775440  1.0  0.1769
  C  C182  1  0.353900  0.443060  0.714040  1.0  -0.0043
  C  C183  1  0.259500  0.386210  0.702540  1.0  -0.0889
  C  C184  1  0.295400  0.317880  0.677400  1.0  -0.1961
  C  C185  1  0.427300  0.302360  0.663320  1.0  0.1832
  C  C186  1  0.521200  0.359050  0.671910  1.0  -0.1724
  C  C187  1  0.484600  0.428590  0.696980  1.0  -0.067
  C  C188  1  0.142200  0.231200  0.471960  1.0  0.1806
  C  C189  1  0.035600  0.226200  0.507980  1.0  -0.2215
  C  C190  1  0.904700  0.223940  0.488050  1.0  0.1149
  C  C191  1  0.891000  0.227800  0.430690  1.0  -0.2028
  C  C192  1  0.002500  0.234400  0.397680  1.0  0.1637
  C  C193  1  0.786400  0.221120  0.525970  1.0  -0.001
  C  C194  1  0.665800  0.254500  0.513090  1.0  -0.0644
  C  C195  1  0.558600  0.256200  0.550060  1.0  -0.1704
  C  C196  1  0.571700  0.223760  0.601570  1.0  0.1668
  C  C197  1  0.689600  0.187300  0.614270  1.0  -0.1805
  C  C198  1  0.795500  0.186200  0.576970  1.0  -0.0957
  C  C199  1  0.472000  0.375900  0.417360  1.0  0.6653
  C  C200  1  0.484900  0.439990  0.460440  1.0  -0.1178
  C  C201  1  0.411600  0.441690  0.509010  1.0  -0.0618
  C  C202  1  0.426000  0.500000  0.548780  1.0  -0.0696
  C  C203  1  0.494600  0.127620  0.425960  1.0  0.6497
  C  C204  1  0.379300  0.029410  0.482530  1.0  -0.0627
  C  C205  1  0.498200  0.062370  0.465310  1.0  -0.1271
  C  C206  1  0.619100  0.032510  0.482770  1.0  -0.0554
  C  C207  1  0.263000  0.332960  0.260980  1.0  0.172
  C  C208  1  0.234300  0.395910  0.230010  1.0  -0.204
  C  C209  1  0.177200  0.460330  0.255560  1.0  0.1131
  C  C210  1  0.148000  0.454560  0.311200  1.0  -0.2058
  C  C211  1  0.178000  0.389240  0.339570  1.0  0.1789
  C  C212  1  0.146100  0.530530  0.225130  1.0  -0.027
  C  C213  1  0.125800  0.529260  0.167590  1.0  -0.0645
  C  C214  1  0.089100  0.593960  0.140420  1.0  -0.1805
  C  C215  1  0.074900  0.662980  0.169810  1.0  0.1683
  C  C216  1  0.096400  0.665610  0.227120  1.0  -0.1958
  C  C217  1  0.132600  0.600400  0.253940  1.0  -0.0924
  C  C218  1  0.328800  0.083700  0.308260  1.0  0.1783
  C  C219  1  0.297700  0.018010  0.278350  1.0  -0.2046
  C  C220  1  0.183500  0.014010  0.244870  1.0  0.1123
  C  C221  1  0.107600  0.080500  0.243770  1.0  -0.1847
  C  C222  1  0.146600  0.144380  0.275440  1.0  0.1773
  C  C223  1  0.146100  0.943060  0.214040  1.0  -0.0045
  C  C224  1  0.240500  0.886210  0.202540  1.0  -0.09
  C  C225  1  0.204600  0.817880  0.177400  1.0  -0.1966
  C  C226  1  0.072700  0.802360  0.163320  1.0  0.1833
  C  C227  1  0.978800  0.859050  0.171910  1.0  -0.1719
  C  C228  1  0.015400  0.928590  0.196980  1.0  -0.0678
  C  C229  1  0.357800  0.731200  0.971960  1.0  0.1806
  C  C230  1  0.464400  0.726200  0.007980  1.0  -0.2219
  C  C231  1  0.595300  0.723940  0.988050  1.0  0.1149
  C  C232  1  0.609000  0.727800  0.930690  1.0  -0.2027
  C  C233  1  0.497500  0.734400  0.897680  1.0  0.1642
  C  C234  1  0.713600  0.721120  0.025970  1.0  -0.0003
  C  C235  1  0.834200  0.754500  0.013090  1.0  -0.065
  C  C236  1  0.941400  0.756200  0.050060  1.0  -0.1706
  C  C237  1  0.928300  0.723760  0.101570  1.0  0.1661
  C  C238  1  0.810400  0.687300  0.114270  1.0  -0.1795
  C  C239  1  0.704500  0.686200  0.076970  1.0  -0.0961
  C  C240  1  0.972000  0.124100  0.082640  1.0  0.6722
  C  C241  1  0.984900  0.060010  0.039560  1.0  -0.118
  C  C242  1  0.911600  0.058310  0.990990  1.0  -0.0612
  C  C243  1  0.926000  0.000000  0.951220  1.0  -0.0703
  C  C244  1  0.994600  0.372380  0.074040  1.0  0.6499
  C  C245  1  0.879300  0.470590  0.017470  1.0  -0.0621
  C  C246  1  0.998200  0.437630  0.034690  1.0  -0.1271
  C  C247  1  0.119100  0.467490  0.017230  1.0  -0.0555
  C  C248  1  0.763000  0.167040  0.239020  1.0  0.172
  C  C249  1  0.734300  0.104090  0.269990  1.0  -0.2049
  C  C250  1  0.677200  0.039670  0.244440  1.0  0.1126
  C  C251  1  0.648000  0.045440  0.188800  1.0  -0.2053
  C  C252  1  0.678000  0.110760  0.160430  1.0  0.1793
  C  C253  1  0.646100  0.969470  0.274870  1.0  -0.0271
  C  C254  1  0.625800  0.970740  0.332410  1.0  -0.066
  C  C255  1  0.589100  0.906040  0.359580  1.0  -0.1805
  C  C256  1  0.574900  0.837020  0.330190  1.0  0.169
  C  C257  1  0.596400  0.834390  0.272880  1.0  -0.1939
  C  C258  1  0.632600  0.899600  0.246060  1.0  -0.0945
  C  C259  1  0.828800  0.416300  0.191740  1.0  0.1777
  C  C260  1  0.797700  0.481990  0.221650  1.0  -0.2042
  C  C261  1  0.683500  0.485990  0.255130  1.0  0.1122
  C  C262  1  0.607600  0.419500  0.256230  1.0  -0.185
  C  C263  1  0.646600  0.355620  0.224560  1.0  0.1771
  C  C264  1  0.646100  0.556940  0.285960  1.0  -0.004
  C  C265  1  0.740500  0.613790  0.297460  1.0  -0.0905
  C  C266  1  0.704600  0.682120  0.322600  1.0  -0.1969
  C  C267  1  0.572700  0.697640  0.336680  1.0  0.1831
  C  C268  1  0.478800  0.640950  0.328090  1.0  -0.1731
  C  C269  1  0.515400  0.571410  0.303020  1.0  -0.0676
  C  C270  1  0.857800  0.768800  0.528040  1.0  0.1802
  C  C271  1  0.964400  0.773800  0.492020  1.0  -0.2218
  C  C272  1  0.095300  0.776060  0.511950  1.0  0.1149
  C  C273  1  0.109000  0.772200  0.569310  1.0  -0.2026
  C  C274  1  0.997500  0.765600  0.602320  1.0  0.1638
  C  C275  1  0.213600  0.778880  0.474030  1.0  1e-04
  C  C276  1  0.334200  0.745500  0.486910  1.0  -0.0645
  C  C277  1  0.441400  0.743800  0.449940  1.0  -0.171
  C  C278  1  0.428300  0.776240  0.398430  1.0  0.1661
  C  C279  1  0.310400  0.812700  0.385730  1.0  -0.1792
  C  C280  1  0.204500  0.813800  0.423030  1.0  -0.0965
  N  N281  1  0.763200  0.671690  0.684840  1.0  -0.363
  N  N282  1  0.747400  0.852850  0.691240  1.0  -0.3645
  N  N283  1  0.628900  0.264170  0.083160  1.0  -0.328
  N  N284  1  0.963400  0.270640  0.858920  1.0  -0.1632
  N  N285  1  0.263200  0.828310  0.815160  1.0  -0.361
  N  N286  1  0.247400  0.647150  0.808760  1.0  -0.3652
  N  N287  1  0.128900  0.235830  0.416840  1.0  -0.3286
  N  N288  1  0.463400  0.229360  0.641080  1.0  -0.1631
  N  N289  1  0.236800  0.328310  0.315160  1.0  -0.3607
  N  N290  1  0.252600  0.147150  0.308760  1.0  -0.3649
  N  N291  1  0.371100  0.735830  0.916840  1.0  -0.3294
  N  N292  1  0.036600  0.729360  0.141080  1.0  -0.1618
  N  N293  1  0.736800  0.171690  0.184840  1.0  -0.362
  N  N294  1  0.752600  0.352850  0.191240  1.0  -0.364
  N  N295  1  0.871100  0.764170  0.583160  1.0  -0.3292
  N  N296  1  0.536600  0.770640  0.358920  1.0  -0.1619
  O  O297  1  0.444300  0.627460  0.620940  1.0  -0.5906
  O  O298  1  0.623300  0.670680  0.576230  1.0  -0.6069
  O  O299  1  0.616710  0.839270  0.578420  1.0  -0.5921
  O  O300  1  0.401070  0.857680  0.601090  1.0  -0.602
  O  O301  1  0.944300  0.872540  0.879060  1.0  -0.5896
  O  O302  1  0.123300  0.829320  0.923770  1.0  -0.6068
  O  O303  1  0.116710  0.660730  0.921580  1.0  -0.5921
  O  O304  1  0.901070  0.642320  0.898910  1.0  -0.6016
  O  O305  1  0.555700  0.372540  0.379060  1.0  -0.5941
  O  O306  1  0.376700  0.329320  0.423770  1.0  -0.6069
  O  O307  1  0.383290  0.160730  0.421580  1.0  -0.5919
  O  O308  1  0.598930  0.142320  0.398910  1.0  -0.602
  O  O309  1  0.055700  0.127460  0.120940  1.0  -0.5941
  O  O310  1  0.876700  0.170680  0.076230  1.0  -0.6068
  O  O311  1  0.883290  0.339270  0.078420  1.0  -0.5919
  O  O312  1  0.098930  0.357680  0.101090  1.0  -0.6027
