# generated using pymatgen
data_H4Pb(C2O)4
_symmetry_space_group_name_H-M   'P 1'
_cell_length_a   6.79920000
_cell_length_b   11.55300000
_cell_length_c   17.05800000
_cell_angle_alpha   92.49000000
_cell_angle_beta   90.00000000
_cell_angle_gamma   90.00000000
_symmetry_Int_Tables_number   1
_chemical_formula_structural   H4Pb(C2O)4
_chemical_formula_sum   'H16 Pb4 C32 O16'
_cell_volume   1338.66051452
_cell_formula_units_Z   4
loop_
 _symmetry_equiv_pos_site_id
 _symmetry_equiv_pos_as_xyz
  1  'x, y, z'
loop_
 _atom_site_type_symbol
 _atom_site_label
 _atom_site_symmetry_multiplicity
 _atom_site_fract_x
 _atom_site_fract_y
 _atom_site_fract_z
 _atom_site_occupancy
 _atom_site_charge
  H  H1  1  0.280700  0.107100  0.026500  1.0  0.1039
  H  H2  1  0.733500  0.015500  0.083900  1.0  0.1046
  H  H3  1  0.349900  0.396900  0.097400  1.0  0.1052
  H  H4  1  0.834500  0.537400  0.005500  1.0  0.1068
  H  H5  1  0.780700  0.392900  0.473500  1.0  0.104
  H  H6  1  0.233500  0.484500  0.416100  1.0  0.1041
  H  H7  1  0.849900  0.103100  0.402600  1.0  0.1048
  H  H8  1  0.334500  0.962600  0.494500  1.0  0.1068
  H  H9  1  0.719300  0.892900  0.973500  1.0  0.104
  H  H10  1  0.266500  0.984500  0.916100  1.0  0.1043
  H  H11  1  0.650100  0.603100  0.902600  1.0  0.1054
  H  H12  1  0.165500  0.462600  0.994500  1.0  0.1071
  H  H13  1  0.219300  0.607100  0.526500  1.0  0.1041
  H  H14  1  0.766500  0.515500  0.583900  1.0  0.1045
  H  H15  1  0.150100  0.896900  0.597400  1.0  0.1059
  H  H16  1  0.665500  0.037400  0.505500  1.0  0.107
  Pb  Pb17  1  0.949420  0.342850  0.256930  1.0  1.1392
  Pb  Pb18  1  0.449420  0.157150  0.243070  1.0  1.1394
  Pb  Pb19  1  0.050580  0.657150  0.743070  1.0  1.1396
  Pb  Pb20  1  0.550580  0.842850  0.756930  1.0  1.1397
  C  C21  1  0.019400  0.154000  0.138500  1.0  0.6855
  C  C22  1  0.010600  0.073000  0.067000  1.0  -0.1248
  C  C23  1  0.167600  0.063800  0.016100  1.0  -0.0558
  C  C24  1  0.841100  0.009200  0.050400  1.0  -0.0461
  C  C25  1  0.733800  0.417700  0.127400  1.0  0.669
  C  C26  1  0.610900  0.459900  0.061500  1.0  -0.1332
  C  C27  1  0.410000  0.438100  0.058300  1.0  -0.0427
  C  C28  1  0.700200  0.522400  0.003100  1.0  -0.0394
  C  C29  1  0.519400  0.346000  0.361500  1.0  0.6867
  C  C30  1  0.510600  0.427000  0.433000  1.0  -0.1249
  C  C31  1  0.667600  0.436200  0.483900  1.0  -0.0558
  C  C32  1  0.341100  0.490800  0.449600  1.0  -0.0468
  C  C33  1  0.233800  0.082300  0.372600  1.0  0.6682
  C  C34  1  0.110900  0.040100  0.438500  1.0  -0.1325
  C  C35  1  0.910000  0.061900  0.441700  1.0  -0.0427
  C  C36  1  0.200200  0.977600  0.496900  1.0  -0.0391
  C  C37  1  0.980600  0.846000  0.861500  1.0  0.6866
  C  C38  1  0.989400  0.927000  0.933000  1.0  -0.125
  C  C39  1  0.832400  0.936200  0.983900  1.0  -0.0554
  C  C40  1  0.158900  0.990800  0.949600  1.0  -0.0466
  C  C41  1  0.266200  0.582300  0.872600  1.0  0.6708
  C  C42  1  0.389100  0.540100  0.938500  1.0  -0.1329
  C  C43  1  0.590000  0.561900  0.941700  1.0  -0.0425
  C  C44  1  0.299800  0.477600  0.996900  1.0  -0.0405
  C  C45  1  0.480600  0.654000  0.638500  1.0  0.6855
  C  C46  1  0.489400  0.573000  0.567000  1.0  -0.1249
  C  C47  1  0.332400  0.563800  0.516100  1.0  -0.056
  C  C48  1  0.658900  0.509200  0.550400  1.0  -0.0459
  C  C49  1  0.766200  0.917700  0.627400  1.0  0.6708
  C  C50  1  0.889100  0.959900  0.561500  1.0  -0.1334
  C  C51  1  0.090000  0.938100  0.558300  1.0  -0.0426
  C  C52  1  0.799800  0.022400  0.503100  1.0  -0.0406
  O  O53  1  0.869900  0.164400  0.180400  1.0  -0.6004
  O  O54  1  0.177900  0.209500  0.151810  1.0  -0.6415
  O  O55  1  0.645900  0.370900  0.183900  1.0  -0.6389
  O  O56  1  0.915700  0.430200  0.126200  1.0  -0.5923
  O  O57  1  0.369900  0.335600  0.319600  1.0  -0.6011
  O  O58  1  0.677900  0.290500  0.348190  1.0  -0.6423
  O  O59  1  0.145900  0.129100  0.316100  1.0  -0.6391
  O  O60  1  0.415700  0.069800  0.373800  1.0  -0.5919
  O  O61  1  0.130100  0.835600  0.819600  1.0  -0.6008
  O  O62  1  0.822100  0.790500  0.848190  1.0  -0.6427
  O  O63  1  0.354100  0.629100  0.816100  1.0  -0.6391
  O  O64  1  0.084300  0.569800  0.873800  1.0  -0.5915
  O  O65  1  0.630100  0.664400  0.680400  1.0  -0.6008
  O  O66  1  0.322100  0.709500  0.651810  1.0  -0.6408
  O  O67  1  0.854100  0.870900  0.683900  1.0  -0.6386
  O  O68  1  0.584300  0.930200  0.626200  1.0  -0.5916
