# generated using pymatgen
data_Np2C3O7
_symmetry_space_group_name_H-M   'P 1'
_cell_length_a   8.85600000
_cell_length_b   9.06900000
_cell_length_c   15.53500000
_cell_angle_alpha   90.00000000
_cell_angle_beta   90.00000000
_cell_angle_gamma   114.43000000
_symmetry_Int_Tables_number   1
_chemical_formula_structural   Np2C3O7
_chemical_formula_sum   'Np8 C12 O28'
_cell_volume   1135.98497907
_cell_formula_units_Z   4
loop_
 _symmetry_equiv_pos_site_id
 _symmetry_equiv_pos_as_xyz
  1  'x, y, z'
loop_
 _atom_site_type_symbol
 _atom_site_label
 _atom_site_symmetry_multiplicity
 _atom_site_fract_x
 _atom_site_fract_y
 _atom_site_fract_z
 _atom_site_occupancy
 _atom_site_charge
  Np  Np1  1  0.247590  0.374320  0.358390  1.0  2.2437
  Np  Np2  1  0.767850  0.643180  0.372640  1.0  2.5882
  Np  Np3  1  0.252410  0.125680  0.858390  1.0  2.2451
  Np  Np4  1  0.732150  0.856820  0.872640  1.0  2.5883
  Np  Np5  1  0.752410  0.625680  0.641610  1.0  2.2464
  Np  Np6  1  0.232150  0.356820  0.627360  1.0  2.5889
  Np  Np7  1  0.747590  0.874320  0.141610  1.0  2.2446
  Np  Np8  1  0.267850  0.143180  0.127360  1.0  2.5887
  C  C9  1  0.129000  0.968000  0.420800  1.0  0.815
  C  C10  1  0.168000  0.706000  0.393600  1.0  0.8111
  C  C11  1  0.194000  0.848000  0.455600  1.0  -0.5491
  C  C12  1  0.371000  0.532000  0.920800  1.0  0.8171
  C  C13  1  0.332000  0.794000  0.893600  1.0  0.8107
  C  C14  1  0.306000  0.652000  0.955600  1.0  -0.5462
  C  C15  1  0.871000  0.032000  0.579200  1.0  0.8164
  C  C16  1  0.832000  0.294000  0.606400  1.0  0.8103
  C  C17  1  0.806000  0.152000  0.544400  1.0  -0.5349
  C  C18  1  0.629000  0.468000  0.079200  1.0  0.8143
  C  C19  1  0.668000  0.206000  0.106400  1.0  0.811
  C  C20  1  0.694000  0.348000  0.044400  1.0  -0.5396
  O  O21  1  0.474400  0.455900  0.371300  1.0  -0.9797
  O  O22  1  0.784000  0.600000  0.487300  1.0  -0.9769
  O  O23  1  0.755500  0.691800  0.258400  1.0  -1.0432
  O  O24  1  0.228000  0.115200  0.422500  1.0  -0.6836
  O  O25  1  0.980700  0.918200  0.395800  1.0  -0.7415
  O  O26  1  0.280800  0.655900  0.392500  1.0  -0.7152
  O  O27  1  0.040000  0.647000  0.350100  1.0  -0.7762
  O  O28  1  0.025600  0.044100  0.871300  1.0  -0.9786
  O  O29  1  0.716000  0.900000  0.987300  1.0  -0.9766
  O  O30  1  0.744500  0.808200  0.758400  1.0  -1.0432
  O  O31  1  0.272000  0.384800  0.922500  1.0  -0.683
  O  O32  1  0.519300  0.581800  0.895800  1.0  -0.7486
  O  O33  1  0.219200  0.844100  0.892500  1.0  -0.7129
  O  O34  1  0.460000  0.853000  0.850100  1.0  -0.7752
  O  O35  1  0.525600  0.544100  0.628700  1.0  -0.9785
  O  O36  1  0.216000  0.400000  0.512700  1.0  -0.9759
  O  O37  1  0.244500  0.308200  0.741600  1.0  -1.0438
  O  O38  1  0.772000  0.884800  0.577500  1.0  -0.6832
  O  O39  1  0.019300  0.081800  0.604200  1.0  -0.7493
  O  O40  1  0.719200  0.344100  0.607500  1.0  -0.7133
  O  O41  1  0.960000  0.353000  0.649900  1.0  -0.7758
  O  O42  1  0.974400  0.955900  0.128700  1.0  -0.9796
  O  O43  1  0.284000  0.100000  0.012700  1.0  -0.9761
  O  O44  1  0.255500  0.191800  0.241600  1.0  -1.0437
  O  O45  1  0.728000  0.615200  0.077500  1.0  -0.6829
  O  O46  1  0.480700  0.418200  0.104200  1.0  -0.7406
  O  O47  1  0.780800  0.155900  0.107500  1.0  -0.7161
  O  O48  1  0.540000  0.147000  0.149900  1.0  -0.7765
