# generated using pymatgen
data_Na2Mo6P3H6C5NO23
_symmetry_space_group_name_H-M   'P 1'
_cell_length_a   8.16000000
_cell_length_b   10.71500000
_cell_length_c   22.91200000
_cell_angle_alpha   90.00000000
_cell_angle_beta   90.00000000
_cell_angle_gamma   102.58300000
_symmetry_Int_Tables_number   1
_chemical_formula_structural   Na2Mo6P3H6C5NO23
_chemical_formula_sum   'Na4 Mo12 P6 H12 C10 N2 O46'
_cell_volume   1955.18067104
_cell_formula_units_Z   2
loop_
 _symmetry_equiv_pos_site_id
 _symmetry_equiv_pos_as_xyz
  1  'x, y, z'
loop_
 _atom_site_type_symbol
 _atom_site_label
 _atom_site_symmetry_multiplicity
 _atom_site_fract_x
 _atom_site_fract_y
 _atom_site_fract_z
 _atom_site_occupancy
 _atom_site_charge
  Na  Na1  1  0.542300  0.516100  0.572740  1.0  1.0055
  Na  Na2  1  0.457700  0.483900  0.072740  1.0  1.0058
  Na  Na3  1  0.457700  0.483900  0.427260  1.0  1.0061
  Na  Na4  1  0.542300  0.516100  0.927260  1.0  1.006
  Mo  Mo5  1  0.878240  0.761220  0.670810  1.0  1.4597
  Mo  Mo6  1  0.154150  0.995200  0.599750  1.0  0.7983
  Mo  Mo7  1  0.426510  0.248340  0.676500  1.0  1.4474
  Mo  Mo8  1  0.121760  0.238780  0.170810  1.0  1.4566
  Mo  Mo9  1  0.845850  0.004800  0.099750  1.0  0.8003
  Mo  Mo10  1  0.573490  0.751660  0.176500  1.0  1.448
  Mo  Mo11  1  0.121760  0.238780  0.329190  1.0  1.4572
  Mo  Mo12  1  0.845850  0.004800  0.400250  1.0  0.8016
  Mo  Mo13  1  0.573490  0.751660  0.323500  1.0  1.4475
  Mo  Mo14  1  0.878240  0.761220  0.829190  1.0  1.46
  Mo  Mo15  1  0.154150  0.995200  0.900250  1.0  0.8013
  Mo  Mo16  1  0.426510  0.248340  0.823500  1.0  1.4472
  P  P17  1  0.260400  0.699410  0.630520  1.0  1.6364
  P  P18  1  0.739600  0.300590  0.130520  1.0  1.637
  P  P19  1  0.739600  0.300590  0.369480  1.0  1.636
  P  P20  1  0.260400  0.699410  0.869480  1.0  1.6352
  P  P21  1  0.210500  0.969200  0.750000  1.0  1.6065
  P  P22  1  0.789500  0.030800  0.250000  1.0  1.6043
  H  H23  1  0.376700  0.592200  0.703000  1.0  0.2343
  H  H24  1  0.498800  0.723300  0.689400  1.0  0.2303
  H  H25  1  0.468800  0.906700  0.785200  1.0  0.2401
  H  H26  1  0.623300  0.407800  0.203000  1.0  0.2339
  H  H27  1  0.501200  0.276700  0.189400  1.0  0.2309
  H  H28  1  0.531200  0.093300  0.285200  1.0  0.2408
  H  H29  1  0.623300  0.407800  0.297000  1.0  0.2338
  H  H30  1  0.501200  0.276700  0.310600  1.0  0.2317
  H  H31  1  0.531200  0.093300  0.214800  1.0  0.2398
  H  H32  1  0.376700  0.592200  0.797000  1.0  0.2344
  H  H33  1  0.498800  0.723300  0.810600  1.0  0.2301
  H  H34  1  0.468800  0.906700  0.714800  1.0  0.2399
  C  C35  1  0.382200  0.682300  0.696200  1.0  -0.3759
  C  C36  1  0.617800  0.317700  0.196200  1.0  -0.3781
  C  C37  1  0.617800  0.317700  0.303800  1.0  -0.3784
  C  C38  1  0.382200  0.682300  0.803800  1.0  -0.3757
  C  C39  1  0.379900  0.885200  0.750000  1.0  -0.1109
  C  C40  1  0.710700  0.142600  0.750000  1.0  0.7531
  C  C41  1  0.891900  0.137400  0.750000  1.0  0.0307
  C  C42  1  0.620100  0.114800  0.250000  1.0  -0.1082
  C  C43  1  0.289300  0.857400  0.250000  1.0  0.7545
  C  C44  1  0.108100  0.862600  0.250000  1.0  0.0334
  N  N45  1  0.321600  0.739300  0.750000  1.0  -0.1558
  N  N46  1  0.678400  0.260700  0.250000  1.0  -0.1531
  O  O47  1  0.739200  0.632100  0.644100  1.0  -0.6607
  O  O48  1  0.968600  0.846500  0.599200  1.0  -0.6119
  O  O49  1  0.107000  0.929000  0.695100  1.0  -0.8071
  O  O50  1  0.081300  0.662700  0.654100  1.0  -0.7749
  O  O51  1  0.356500  0.094500  0.633100  1.0  -0.6721
  O  O52  1  0.303500  0.836900  0.608700  1.0  -0.7437
  O  O53  1  0.571900  0.338200  0.630500  1.0  -0.6202
  O  O54  1  0.637300  0.147900  0.701200  1.0  -0.5481
  O  O55  1  0.302300  0.603200  0.588100  1.0  -0.7807
  O  O56  1  0.398300  0.345500  0.508600  1.0  -0.5024
  O  O57  1  0.260800  0.367900  0.144100  1.0  -0.6611
  O  O58  1  0.031400  0.153500  0.099200  1.0  -0.6125
  O  O59  1  0.893000  0.071000  0.195100  1.0  -0.8075
  O  O60  1  0.918700  0.337300  0.154100  1.0  -0.7767
  O  O61  1  0.643500  0.905500  0.133100  1.0  -0.6705
  O  O62  1  0.696500  0.163100  0.108700  1.0  -0.7439
  O  O63  1  0.428100  0.661800  0.130500  1.0  -0.6223
  O  O64  1  0.362700  0.852100  0.201200  1.0  -0.5466
  O  O65  1  0.697700  0.396800  0.088100  1.0  -0.7836
  O  O66  1  0.601700  0.654500  0.008600  1.0  -0.502
  O  O67  1  0.260800  0.367900  0.355900  1.0  -0.6598
  O  O68  1  0.031400  0.153500  0.400800  1.0  -0.6115
  O  O69  1  0.893000  0.071000  0.304900  1.0  -0.8076
  O  O70  1  0.918700  0.337300  0.345900  1.0  -0.7754
  O  O71  1  0.643500  0.905500  0.366900  1.0  -0.6703
  O  O72  1  0.696500  0.163100  0.391300  1.0  -0.7362
  O  O73  1  0.428100  0.661800  0.369500  1.0  -0.622
  O  O74  1  0.362700  0.852100  0.298800  1.0  -0.5482
  O  O75  1  0.697700  0.396800  0.411900  1.0  -0.7798
  O  O76  1  0.601700  0.654500  0.491400  1.0  -0.5019
  O  O77  1  0.739200  0.632100  0.855900  1.0  -0.6597
  O  O78  1  0.968600  0.846500  0.900800  1.0  -0.6128
  O  O79  1  0.107000  0.929000  0.804900  1.0  -0.8081
  O  O80  1  0.081300  0.662700  0.845900  1.0  -0.7763
  O  O81  1  0.356500  0.094500  0.866900  1.0  -0.6689
  O  O82  1  0.303500  0.836900  0.891300  1.0  -0.7354
  O  O83  1  0.571900  0.338200  0.869500  1.0  -0.6194
  O  O84  1  0.637300  0.147900  0.798800  1.0  -0.5485
  O  O85  1  0.302300  0.603200  0.911900  1.0  -0.7823
  O  O86  1  0.398300  0.345500  0.991400  1.0  -0.5022
  O  O87  1  0.916400  0.711600  0.750000  1.0  -0.6473
  O  O88  1  0.500500  0.330700  0.750000  1.0  -0.5884
  O  O89  1  0.294200  0.112400  0.750000  1.0  -0.8064
  O  O90  1  0.083600  0.288400  0.250000  1.0  -0.6468
  O  O91  1  0.499500  0.669300  0.250000  1.0  -0.5889
  O  O92  1  0.705800  0.887600  0.250000  1.0  -0.8066
