# generated using pymatgen
data_Zn2H16C21(NO4)2
_symmetry_space_group_name_H-M   'P 1'
_cell_length_a   8.70000000
_cell_length_b   11.45170000
_cell_length_c   23.04910000
_cell_angle_alpha   90.00000000
_cell_angle_beta   90.00000000
_cell_angle_gamma   90.00000000
_symmetry_Int_Tables_number   1
_chemical_formula_structural   Zn2H16C21(NO4)2
_chemical_formula_sum   'Zn8 H64 C84 N8 O32'
_cell_volume   2296.37699269
_cell_formula_units_Z   4
loop_
 _symmetry_equiv_pos_site_id
 _symmetry_equiv_pos_as_xyz
  1  'x, y, z'
loop_
 _atom_site_type_symbol
 _atom_site_label
 _atom_site_symmetry_multiplicity
 _atom_site_fract_x
 _atom_site_fract_y
 _atom_site_fract_z
 _atom_site_occupancy
 _atom_site_charge
  Zn  Zn1  1  0.152290  0.825960  0.727960  1.0  0.906
  Zn  Zn2  1  0.633040  0.790670  0.658850  1.0  0.9519
  Zn  Zn3  1  0.347710  0.174040  0.227960  1.0  0.9062
  Zn  Zn4  1  0.866960  0.209330  0.158850  1.0  0.9514
  Zn  Zn5  1  0.847710  0.325960  0.772040  1.0  0.9065
  Zn  Zn6  1  0.366960  0.290670  0.841150  1.0  0.9524
  Zn  Zn7  1  0.652290  0.674040  0.272040  1.0  0.9063
  Zn  Zn8  1  0.133040  0.709330  0.341150  1.0  0.9535
  H  H9  1  0.562900  0.395100  0.621400  1.0  0.0887
  H  H10  1  0.414300  0.329300  0.600000  1.0  0.1145
  H  H11  1  0.344700  0.512100  0.576200  1.0  0.1098
  H  H12  1  0.154800  0.448500  0.636600  1.0  0.0977
  H  H13  1  0.330200  0.487700  0.737400  1.0  0.0969
  H  H14  1  0.377800  0.271100  0.689000  1.0  0.1138
  H  H15  1  0.220700  0.865500  0.601600  1.0  0.083
  H  H16  1  0.202600  0.011400  0.532100  1.0  0.1412
  H  H17  1  0.042700  0.224000  0.655400  1.0  0.1264
  H  H18  1  0.067300  0.072900  0.721100  1.0  0.0959
  H  H19  1  0.039700  0.302300  0.560200  1.0  0.2033
  H  H20  1  0.204200  0.183200  0.482400  1.0  0.0942
  H  H21  1  0.242400  0.284400  0.391400  1.0  0.1343
  H  H22  1  0.220100  0.446600  0.334300  1.0  0.091
  H  H23  1  0.029100  0.622400  0.461000  1.0  0.1133
  H  H24  1  0.037800  0.462200  0.521800  1.0  0.1403
  H  H25  1  0.937100  0.604900  0.121400  1.0  0.0893
  H  H26  1  0.085700  0.670700  0.100000  1.0  0.1141
  H  H27  1  0.155300  0.487900  0.076200  1.0  0.1099
  H  H28  1  0.345200  0.551500  0.136600  1.0  0.0987
  H  H29  1  0.169800  0.512300  0.237400  1.0  0.0969
  H  H30  1  0.122200  0.728900  0.189000  1.0  0.1159
  H  H31  1  0.279300  0.134500  0.101600  1.0  0.0825
  H  H32  1  0.297400  0.988600  0.032100  1.0  0.1415
  H  H33  1  0.457300  0.776000  0.155400  1.0  0.1267
  H  H34  1  0.432700  0.927100  0.221100  1.0  0.0959
  H  H35  1  0.460300  0.697700  0.060200  1.0  0.2027
  H  H36  1  0.295800  0.816800  0.982400  1.0  0.0945
  H  H37  1  0.257600  0.715600  0.891400  1.0  0.1345
  H  H38  1  0.279900  0.553400  0.834300  1.0  0.091
  H  H39  1  0.470900  0.377600  0.961000  1.0  0.113
  H  H40  1  0.462200  0.537800  0.021800  1.0  0.1405
  H  H41  1  0.437100  0.895100  0.878600  1.0  0.0901
  H  H42  1  0.585700  0.829300  0.900000  1.0  0.115
  H  H43  1  0.655300  0.012100  0.923800  1.0  0.1084
  H  H44  1  0.845200  0.948500  0.863400  1.0  0.0986
  H  H45  1  0.669800  0.987700  0.762600  1.0  0.0982
  H  H46  1  0.622200  0.771100  0.811000  1.0  0.1129
  H  H47  1  0.779300  0.365500  0.898400  1.0  0.0831
  H  H48  1  0.797400  0.511400  0.967900  1.0  0.1417
  H  H49  1  0.957300  0.724000  0.844600  1.0  0.1261
  H  H50  1  0.932700  0.572900  0.778900  1.0  0.0967
  H  H51  1  0.960300  0.802300  0.939800  1.0  0.2024
  H  H52  1  0.795800  0.683200  0.017600  1.0  0.0936
  H  H53  1  0.757600  0.784400  0.108600  1.0  0.1345
  H  H54  1  0.779900  0.946600  0.165700  1.0  0.09
  H  H55  1  0.970900  0.122400  0.039000  1.0  0.1131
  H  H56  1  0.962200  0.962200  0.978200  1.0  0.1395
  H  H57  1  0.062900  0.104900  0.378600  1.0  0.0889
  H  H58  1  0.914300  0.170700  0.400000  1.0  0.1139
  H  H59  1  0.844700  0.987900  0.423800  1.0  0.1081
  H  H60  1  0.654800  0.051500  0.363400  1.0  0.0977
  H  H61  1  0.830200  0.012300  0.262600  1.0  0.0975
  H  H62  1  0.877800  0.228900  0.311000  1.0  0.1155
  H  H63  1  0.720700  0.634500  0.398400  1.0  0.0823
  H  H64  1  0.702600  0.488600  0.467900  1.0  0.1411
  H  H65  1  0.542700  0.276000  0.344600  1.0  0.1264
  H  H66  1  0.567300  0.427100  0.278900  1.0  0.0968
  H  H67  1  0.539700  0.197700  0.439800  1.0  0.2018
  H  H68  1  0.704200  0.316800  0.517600  1.0  0.0939
  H  H69  1  0.742400  0.215600  0.608600  1.0  0.1343
  H  H70  1  0.720100  0.053400  0.665700  1.0  0.0903
  H  H71  1  0.529100  0.877600  0.539000  1.0  0.1127
  H  H72  1  0.537800  0.037800  0.478200  1.0  0.1402
  C  C73  1  0.452800  0.387500  0.626900  1.0  -0.1729
  C  C74  1  0.374300  0.503000  0.616900  1.0  -0.1341
  C  C75  1  0.232100  0.496500  0.656200  1.0  -0.1737
  C  C76  1  0.285600  0.430100  0.710800  1.0  -0.1355
  C  C77  1  0.416800  0.351400  0.690000  1.0  -0.1303
  C  C78  1  0.484300  0.604100  0.636600  1.0  0.6356
  C  C79  1  0.164800  0.616100  0.665200  1.0  0.6767
  C  C80  1  0.156800  0.370900  0.742500  1.0  0.6401
  C  C81  1  0.557400  0.353000  0.729800  1.0  0.6566
  C  C82  1  0.184400  0.938400  0.612900  1.0  0.1943
  C  C83  1  0.173900  0.026100  0.570300  1.0  -0.1932
  C  C84  1  0.120200  0.133900  0.586700  1.0  0.0175
  C  C85  1  0.079600  0.151800  0.643300  1.0  -0.1933
  C  C86  1  0.094400  0.060000  0.682600  1.0  0.1727
  C  C87  1  0.097600  0.239900  0.546400  1.0  -0.0984
  C  C88  1  0.151400  0.246900  0.497500  1.0  -0.1373
  C  C89  1  0.135500  0.352600  0.461600  1.0  0.0326
  C  C90  1  0.195800  0.351300  0.406000  1.0  -0.223
  C  C91  1  0.185500  0.451000  0.372400  1.0  0.1843
  C  C92  1  0.072300  0.553800  0.446900  1.0  0.1512
  C  C93  1  0.074700  0.457500  0.484000  1.0  -0.1789
  C  C94  1  0.047200  0.612500  0.126900  1.0  -0.1717
  C  C95  1  0.125700  0.497000  0.116900  1.0  -0.1353
  C  C96  1  0.267900  0.503500  0.156200  1.0  -0.1718
  C  C97  1  0.214400  0.569900  0.210800  1.0  -0.1366
  C  C98  1  0.083200  0.648600  0.190000  1.0  -0.1297
  C  C99  1  0.015700  0.395900  0.136600  1.0  0.6356
  C  C100  1  0.335200  0.383900  0.165200  1.0  0.6746
  C  C101  1  0.343200  0.629100  0.242500  1.0  0.6422
  C  C102  1  0.942600  0.647000  0.229800  1.0  0.6549
  C  C103  1  0.315600  0.061600  0.112900  1.0  0.1947
  C  C104  1  0.326100  0.973900  0.070300  1.0  -0.1944
  C  C105  1  0.379800  0.866100  0.086700  1.0  0.0186
  C  C106  1  0.420400  0.848200  0.143300  1.0  -0.1942
  C  C107  1  0.405600  0.940000  0.182600  1.0  0.1727
  C  C108  1  0.402400  0.760100  0.046400  1.0  -0.0973
  C  C109  1  0.348600  0.753100  0.997500  1.0  -0.1375
  C  C110  1  0.364500  0.647400  0.961600  1.0  0.0332
  C  C111  1  0.304200  0.648700  0.906000  1.0  -0.2228
  C  C112  1  0.314500  0.549000  0.872400  1.0  0.1849
  C  C113  1  0.427700  0.446200  0.946900  1.0  0.1511
  C  C114  1  0.425300  0.542500  0.984000  1.0  -0.1786
  C  C115  1  0.547200  0.887500  0.873100  1.0  -0.1737
  C  C116  1  0.625700  0.003000  0.883100  1.0  -0.1334
  C  C117  1  0.767900  0.996500  0.843800  1.0  -0.1713
  C  C118  1  0.714400  0.930100  0.789200  1.0  -0.1377
  C  C119  1  0.583200  0.851400  0.810000  1.0  -0.1301
  C  C120  1  0.515700  0.104100  0.863400  1.0  0.6353
  C  C121  1  0.835200  0.116100  0.834800  1.0  0.6772
  C  C122  1  0.843200  0.870900  0.757500  1.0  0.6424
  C  C123  1  0.442600  0.853000  0.770200  1.0  0.656
  C  C124  1  0.815600  0.438400  0.887100  1.0  0.1943
  C  C125  1  0.826100  0.526100  0.929700  1.0  -0.1944
  C  C126  1  0.879800  0.633900  0.913300  1.0  0.0181
  C  C127  1  0.920400  0.651800  0.856700  1.0  -0.1935
  C  C128  1  0.905600  0.560000  0.817400  1.0  0.1729
  C  C129  1  0.902400  0.739900  0.953600  1.0  -0.0973
  C  C130  1  0.848600  0.746900  0.002500  1.0  -0.1382
  C  C131  1  0.864500  0.852600  0.038400  1.0  0.0334
  C  C132  1  0.804200  0.851300  0.094000  1.0  -0.2241
  C  C133  1  0.814500  0.951000  0.127600  1.0  0.1832
  C  C134  1  0.927700  0.053800  0.053100  1.0  0.1505
  C  C135  1  0.925300  0.957500  0.016000  1.0  -0.1801
  C  C136  1  0.952800  0.112500  0.373100  1.0  -0.1726
  C  C137  1  0.874300  0.997000  0.383100  1.0  -0.1337
  C  C138  1  0.732100  0.003500  0.343800  1.0  -0.1727
  C  C139  1  0.785600  0.069900  0.289200  1.0  -0.1367
  C  C140  1  0.916800  0.148600  0.310000  1.0  -0.1309
  C  C141  1  0.984300  0.895900  0.363400  1.0  0.6361
  C  C142  1  0.664800  0.883900  0.334800  1.0  0.6757
  C  C143  1  0.656800  0.129100  0.257500  1.0  0.6419
  C  C144  1  0.057400  0.147000  0.270200  1.0  0.6568
  C  C145  1  0.684400  0.561600  0.387100  1.0  0.1954
  C  C146  1  0.673900  0.473900  0.429700  1.0  -0.193
  C  C147  1  0.620200  0.366100  0.413300  1.0  0.0197
  C  C148  1  0.579600  0.348200  0.356700  1.0  -0.1938
  C  C149  1  0.594400  0.440000  0.317400  1.0  0.1729
  C  C150  1  0.597600  0.260100  0.453600  1.0  -0.0993
  C  C151  1  0.651400  0.253100  0.502500  1.0  -0.1382
  C  C152  1  0.635500  0.147400  0.538400  1.0  0.0324
  C  C153  1  0.695800  0.148700  0.594000  1.0  -0.2229
  C  C154  1  0.685500  0.049000  0.627600  1.0  0.1833
  C  C155  1  0.572300  0.946200  0.553100  1.0  0.1506
  C  C156  1  0.574700  0.042500  0.516000  1.0  -0.1779
  N  N157  1  0.146400  0.953000  0.667400  1.0  -0.3121
  N  N158  1  0.128400  0.555700  0.391100  1.0  -0.3419
  N  N159  1  0.353600  0.047000  0.167400  1.0  -0.3121
  N  N160  1  0.371600  0.444300  0.891100  1.0  -0.3439
  N  N161  1  0.853600  0.453000  0.832600  1.0  -0.313
  N  N162  1  0.871600  0.055700  0.108900  1.0  -0.3418
  N  N163  1  0.646400  0.547000  0.332600  1.0  -0.3129
  N  N164  1  0.628400  0.944300  0.608900  1.0  -0.3425
  O  O165  1  0.566700  0.601400  0.680100  1.0  -0.5439
  O  O166  1  0.478300  0.696000  0.606300  1.0  -0.5753
  O  O167  1  0.169600  0.658400  0.715900  1.0  -0.5874
  O  O168  1  0.104400  0.665100  0.623700  1.0  -0.5576
  O  O169  1  0.691500  0.346700  0.709800  1.0  -0.5685
  O  O170  1  0.537100  0.350900  0.785000  1.0  -0.6399
  O  O171  1  0.182900  0.314800  0.788000  1.0  -0.5999
  O  O172  1  0.023100  0.378700  0.723000  1.0  -0.568
  O  O173  1  0.933300  0.398600  0.180100  1.0  -0.5439
  O  O174  1  0.021700  0.304000  0.106300  1.0  -0.5758
  O  O175  1  0.330400  0.341600  0.215900  1.0  -0.5871
  O  O176  1  0.395600  0.334900  0.123700  1.0  -0.5577
  O  O177  1  0.808500  0.653300  0.209800  1.0  -0.5694
  O  O178  1  0.962900  0.649100  0.285000  1.0  -0.64
  O  O179  1  0.317100  0.685200  0.288000  1.0  -0.6002
  O  O180  1  0.476900  0.621300  0.223000  1.0  -0.5672
  O  O181  1  0.433300  0.101400  0.819900  1.0  -0.5441
  O  O182  1  0.521700  0.196000  0.893700  1.0  -0.5776
  O  O183  1  0.830400  0.158400  0.784100  1.0  -0.5865
  O  O184  1  0.895600  0.165100  0.876300  1.0  -0.557
  O  O185  1  0.308500  0.846700  0.790200  1.0  -0.5696
  O  O186  1  0.462900  0.850900  0.715000  1.0  -0.6403
  O  O187  1  0.817100  0.814800  0.712000  1.0  -0.5968
  O  O188  1  0.976900  0.878700  0.777000  1.0  -0.5674
  O  O189  1  0.066700  0.898600  0.319900  1.0  -0.5441
  O  O190  1  0.978300  0.804000  0.393700  1.0  -0.5757
  O  O191  1  0.669600  0.841600  0.284100  1.0  -0.5866
  O  O192  1  0.604400  0.834900  0.376300  1.0  -0.5558
  O  O193  1  0.191500  0.153300  0.290200  1.0  -0.5675
  O  O194  1  0.037100  0.149100  0.215000  1.0  -0.6405
  O  O195  1  0.682900  0.185200  0.212000  1.0  -0.5968
  O  O196  1  0.523100  0.121300  0.277000  1.0  -0.5691
