# generated using pymatgen
data_ZnPH4C3O5
_symmetry_space_group_name_H-M   'P 1'
_cell_length_a   9.88500000
_cell_length_b   10.02000000
_cell_length_c   16.43800000
_cell_angle_alpha   90.00000000
_cell_angle_beta   90.00000000
_cell_angle_gamma   90.00000000
_symmetry_Int_Tables_number   1
_chemical_formula_structural   ZnPH4C3O5
_chemical_formula_sum   'Zn8 P8 H32 C24 O40'
_cell_volume   1628.14609260
_cell_formula_units_Z   8
loop_
 _symmetry_equiv_pos_site_id
 _symmetry_equiv_pos_as_xyz
  1  'x, y, z'
loop_
 _atom_site_type_symbol
 _atom_site_label
 _atom_site_symmetry_multiplicity
 _atom_site_fract_x
 _atom_site_fract_y
 _atom_site_fract_z
 _atom_site_occupancy
 _atom_site_charge
  Zn  Zn1  1  0.143800  0.596600  0.296650  1.0  1.0446
  Zn  Zn2  1  0.356200  0.903400  0.296650  1.0  1.0448
  Zn  Zn3  1  0.856200  0.096600  0.203350  1.0  1.0449
  Zn  Zn4  1  0.643800  0.403400  0.203350  1.0  1.0447
  Zn  Zn5  1  0.856200  0.403400  0.703350  1.0  1.045
  Zn  Zn6  1  0.643800  0.096600  0.703350  1.0  1.0446
  Zn  Zn7  1  0.143800  0.903400  0.796650  1.0  1.0447
  Zn  Zn8  1  0.356200  0.596600  0.796650  1.0  1.0447
  P  P9  1  0.427100  0.637300  0.212800  1.0  1.6253
  P  P10  1  0.072900  0.862700  0.212800  1.0  1.6242
  P  P11  1  0.572900  0.137300  0.287200  1.0  1.6238
  P  P12  1  0.927100  0.362700  0.287200  1.0  1.6241
  P  P13  1  0.572900  0.362700  0.787200  1.0  1.6236
  P  P14  1  0.927100  0.137300  0.787200  1.0  1.6245
  P  P15  1  0.427100  0.862700  0.712800  1.0  1.6249
  P  P16  1  0.072900  0.637300  0.712800  1.0  1.6245
  H  H17  1  0.744980  0.395090  0.380820  1.0  0.15
  H  H18  1  0.878730  0.522900  0.392140  1.0  0.1198
  H  H19  1  0.030610  0.353670  0.454490  1.0  0.1034
  H  H20  1  0.891780  0.230000  0.450380  1.0  0.1212
  H  H21  1  0.755020  0.104910  0.380820  1.0  0.1495
  H  H22  1  0.621270  0.977100  0.392140  1.0  0.1187
  H  H23  1  0.469390  0.146330  0.454490  1.0  0.1017
  H  H24  1  0.608220  0.270000  0.450380  1.0  0.12
  H  H25  1  0.255020  0.895090  0.119180  1.0  0.1491
  H  H26  1  0.121270  0.022900  0.107860  1.0  0.1194
  H  H27  1  0.969390  0.853670  0.045510  1.0  0.1023
  H  H28  1  0.108220  0.730000  0.049620  1.0  0.1211
  H  H29  1  0.244980  0.604910  0.119180  1.0  0.1503
  H  H30  1  0.378730  0.477100  0.107860  1.0  0.1178
  H  H31  1  0.530610  0.646330  0.045510  1.0  0.1036
  H  H32  1  0.391780  0.770000  0.049620  1.0  0.1215
  H  H33  1  0.255020  0.604910  0.619180  1.0  0.1495
  H  H34  1  0.121270  0.477100  0.607860  1.0  0.1175
  H  H35  1  0.969390  0.646330  0.545510  1.0  0.1017
  H  H36  1  0.108220  0.770000  0.549620  1.0  0.1205
  H  H37  1  0.244980  0.895090  0.619180  1.0  0.1504
  H  H38  1  0.378730  0.022900  0.607860  1.0  0.1193
  H  H39  1  0.530610  0.853670  0.545510  1.0  0.1038
  H  H40  1  0.391780  0.730000  0.549620  1.0  0.1217
  H  H41  1  0.744980  0.104910  0.880820  1.0  0.1498
  H  H42  1  0.878730  0.977100  0.892140  1.0  0.1182
  H  H43  1  0.030610  0.146330  0.954490  1.0  0.1033
  H  H44  1  0.891780  0.270000  0.950380  1.0  0.121
  H  H45  1  0.755020  0.395090  0.880820  1.0  0.1494
  H  H46  1  0.621270  0.522900  0.892140  1.0  0.1192
  H  H47  1  0.469390  0.353670  0.954490  1.0  0.1021
  H  H48  1  0.608220  0.230000  0.950380  1.0  0.1207
  C  C49  1  0.359000  0.588000  0.117800  1.0  -0.1762
  C  C50  1  0.416000  0.659000  0.045200  1.0  -0.1523
  C  C51  1  0.139000  0.611000  0.461600  1.0  0.6931
  C  C52  1  0.141000  0.912000  0.117800  1.0  -0.1771
  C  C53  1  0.084000  0.841000  0.045200  1.0  -0.1511
  C  C54  1  0.361000  0.889000  0.461600  1.0  0.6932
  C  C55  1  0.641000  0.088000  0.382200  1.0  -0.1748
  C  C56  1  0.584000  0.159000  0.454800  1.0  -0.1516
  C  C57  1  0.861000  0.111000  0.038400  1.0  0.692
  C  C58  1  0.859000  0.412000  0.382200  1.0  -0.1752
  C  C59  1  0.916000  0.341000  0.454800  1.0  -0.1508
  C  C60  1  0.639000  0.389000  0.038400  1.0  0.6933
  C  C61  1  0.641000  0.412000  0.882200  1.0  -0.1749
  C  C62  1  0.584000  0.341000  0.954800  1.0  -0.1504
  C  C63  1  0.861000  0.389000  0.538400  1.0  0.692
  C  C64  1  0.859000  0.088000  0.882200  1.0  -0.175
  C  C65  1  0.916000  0.159000  0.954800  1.0  -0.1523
  C  C66  1  0.639000  0.111000  0.538400  1.0  0.6931
  C  C67  1  0.359000  0.912000  0.617800  1.0  -0.1775
  C  C68  1  0.416000  0.841000  0.545200  1.0  -0.1514
  C  C69  1  0.139000  0.889000  0.961600  1.0  0.6934
  C  C70  1  0.141000  0.588000  0.617800  1.0  -0.1765
  C  C71  1  0.084000  0.659000  0.545200  1.0  -0.1515
  C  C72  1  0.361000  0.611000  0.961600  1.0  0.693
  O  O73  1  0.338000  0.581400  0.279800  1.0  -0.7845
  O  O74  1  0.071100  0.417400  0.280900  1.0  -0.7737
  O  O75  1  0.066400  0.710700  0.212400  1.0  -0.8205
  O  O76  1  0.084000  0.666000  0.401300  1.0  -0.5868
  O  O77  1  0.227000  0.526000  0.458600  1.0  -0.5639
  O  O78  1  0.162000  0.918600  0.279800  1.0  -0.7844
  O  O79  1  0.428900  0.082600  0.280900  1.0  -0.7732
  O  O80  1  0.433600  0.789300  0.212400  1.0  -0.8201
  O  O81  1  0.416000  0.834000  0.401300  1.0  -0.5854
  O  O82  1  0.273000  0.974000  0.458600  1.0  -0.5607
  O  O83  1  0.662000  0.081400  0.220200  1.0  -0.783
  O  O84  1  0.928900  0.917400  0.219100  1.0  -0.7731
  O  O85  1  0.933600  0.210700  0.287600  1.0  -0.8203
  O  O86  1  0.916000  0.166000  0.098700  1.0  -0.5864
  O  O87  1  0.773000  0.026000  0.041400  1.0  -0.5625
  O  O88  1  0.838000  0.418600  0.220200  1.0  -0.7829
  O  O89  1  0.571100  0.582600  0.219100  1.0  -0.7737
  O  O90  1  0.566400  0.289300  0.287600  1.0  -0.821
  O  O91  1  0.584000  0.334000  0.098700  1.0  -0.5859
  O  O92  1  0.727000  0.474000  0.041400  1.0  -0.5646
  O  O93  1  0.662000  0.418600  0.720200  1.0  -0.7824
  O  O94  1  0.928900  0.582600  0.719100  1.0  -0.7739
  O  O95  1  0.933600  0.289300  0.787600  1.0  -0.8203
  O  O96  1  0.916000  0.334000  0.598700  1.0  -0.5855
  O  O97  1  0.773000  0.474000  0.541400  1.0  -0.5617
  O  O98  1  0.838000  0.081400  0.720200  1.0  -0.7838
  O  O99  1  0.571100  0.917400  0.719100  1.0  -0.7736
  O  O100  1  0.566400  0.210700  0.787600  1.0  -0.8211
  O  O101  1  0.584000  0.166000  0.598700  1.0  -0.5864
  O  O102  1  0.727000  0.026000  0.541400  1.0  -0.5648
  O  O103  1  0.338000  0.918600  0.779800  1.0  -0.7845
  O  O104  1  0.071100  0.082600  0.780900  1.0  -0.774
  O  O105  1  0.066400  0.789300  0.712400  1.0  -0.8206
  O  O106  1  0.084000  0.834000  0.901300  1.0  -0.5862
  O  O107  1  0.227000  0.974000  0.958600  1.0  -0.5632
  O  O108  1  0.162000  0.581400  0.779800  1.0  -0.7842
  O  O109  1  0.428900  0.417400  0.780900  1.0  -0.7733
  O  O110  1  0.433600  0.710700  0.712400  1.0  -0.82
  O  O111  1  0.416000  0.666000  0.901300  1.0  -0.5867
  O  O112  1  0.273000  0.526000  0.958600  1.0  -0.562
