# generated using pymatgen
data_Cd3H32(C14O5)4
_symmetry_space_group_name_H-M   'P 1'
_cell_length_a   13.41580000
_cell_length_b   21.85510000
_cell_length_c   14.47790000
_cell_angle_alpha   90.00000000
_cell_angle_beta   92.29100000
_cell_angle_gamma   90.00000000
_symmetry_Int_Tables_number   1
_chemical_formula_structural   Cd3H32(C14O5)4
_chemical_formula_sum   'Cd6 H64 C112 O40'
_cell_volume   4241.58006914
_cell_formula_units_Z   2
loop_
 _symmetry_equiv_pos_site_id
 _symmetry_equiv_pos_as_xyz
  1  'x, y, z'
loop_
 _atom_site_type_symbol
 _atom_site_label
 _atom_site_symmetry_multiplicity
 _atom_site_fract_x
 _atom_site_fract_y
 _atom_site_fract_z
 _atom_site_occupancy
 _atom_site_charge
  Cd  Cd1  1  0.675010  0.019220  0.826150  1.0  1.0629
  Cd  Cd2  1  0.824990  0.519220  0.673850  1.0  1.0625
  Cd  Cd3  1  0.324990  0.980780  0.173850  1.0  1.0626
  Cd  Cd4  1  0.175010  0.480780  0.326150  1.0  1.063
  Cd  Cd5  1  0.500000  0.000000  0.000000  1.0  1.2129
  Cd  Cd6  1  0.000000  0.500000  0.500000  1.0  1.2105
  H  H7  1  0.024100  0.988600  0.199700  1.0  0.1286
  H  H8  1  0.684900  0.959600  0.151400  1.0  0.1088
  H  H9  1  0.884300  0.889900  0.622200  1.0  0.1118
  H  H10  1  0.807300  0.057600  0.534800  1.0  0.1134
  H  H11  1  0.761500  0.931600  0.290300  1.0  0.1459
  H  H12  1  0.574600  0.230800  0.811000  1.0  0.1169
  H  H13  1  0.270800  0.227100  0.947200  1.0  0.139
  H  H14  1  0.945000  0.867900  0.478000  1.0  0.1433
  H  H15  1  0.868800  0.036000  0.391400  1.0  0.1186
  H  H16  1  0.327700  0.359700  0.740400  1.0  0.1365
  H  H17  1  0.489400  0.320100  0.831700  1.0  0.1243
  H  H18  1  0.196800  0.398900  0.651000  1.0  0.1101
  H  H19  1  0.945800  0.019900  0.062600  1.0  0.1158
  H  H20  1  0.156400  0.359400  0.959500  1.0  0.1392
  H  H21  1  0.357400  0.137800  0.930200  1.0  0.111
  H  H22  1  0.026400  0.399000  0.869700  1.0  0.1172
  H  H23  1  0.475900  0.488600  0.300300  1.0  0.1292
  H  H24  1  0.815100  0.459600  0.348600  1.0  0.1091
  H  H25  1  0.615700  0.389900  0.877800  1.0  0.1117
  H  H26  1  0.692700  0.557600  0.965200  1.0  0.1131
  H  H27  1  0.738500  0.431600  0.209700  1.0  0.1459
  H  H28  1  0.925400  0.730800  0.689000  1.0  0.1162
  H  H29  1  0.229200  0.727100  0.552800  1.0  0.1386
  H  H30  1  0.555000  0.367900  0.022000  1.0  0.1429
  H  H31  1  0.631200  0.536000  0.108600  1.0  0.1191
  H  H32  1  0.172300  0.859700  0.759600  1.0  0.1368
  H  H33  1  0.010600  0.820100  0.668300  1.0  0.1248
  H  H34  1  0.303200  0.898900  0.849000  1.0  0.11
  H  H35  1  0.554200  0.519900  0.437400  1.0  0.1158
  H  H36  1  0.343600  0.859400  0.540500  1.0  0.1386
  H  H37  1  0.142600  0.637800  0.569800  1.0  0.1106
  H  H38  1  0.473600  0.899000  0.630300  1.0  0.1177
  H  H39  1  0.975900  0.011400  0.800300  1.0  0.1297
  H  H40  1  0.315100  0.040400  0.848600  1.0  0.1091
  H  H41  1  0.115700  0.110100  0.377800  1.0  0.1115
  H  H42  1  0.192700  0.942400  0.465200  1.0  0.113
  H  H43  1  0.238500  0.068400  0.709700  1.0  0.1456
  H  H44  1  0.425400  0.769200  0.189000  1.0  0.1163
  H  H45  1  0.729200  0.772900  0.052800  1.0  0.1387
  H  H46  1  0.055000  0.132100  0.522000  1.0  0.1432
  H  H47  1  0.131200  0.964000  0.608600  1.0  0.119
  H  H48  1  0.672300  0.640300  0.259600  1.0  0.1366
  H  H49  1  0.510600  0.679900  0.168300  1.0  0.125
  H  H50  1  0.803200  0.601100  0.349000  1.0  0.1103
  H  H51  1  0.054200  0.980100  0.937400  1.0  0.116
  H  H52  1  0.843600  0.640600  0.040500  1.0  0.1384
  H  H53  1  0.642600  0.862200  0.069800  1.0  0.11
  H  H54  1  0.973600  0.601000  0.130300  1.0  0.1173
  H  H55  1  0.524100  0.511400  0.699700  1.0  0.1291
  H  H56  1  0.184900  0.540400  0.651400  1.0  0.1091
  H  H57  1  0.384300  0.610100  0.122200  1.0  0.1124
  H  H58  1  0.307300  0.442400  0.034800  1.0  0.1135
  H  H59  1  0.261500  0.568400  0.790300  1.0  0.1457
  H  H60  1  0.074600  0.269200  0.311000  1.0  0.1168
  H  H61  1  0.770800  0.272900  0.447200  1.0  0.1387
  H  H62  1  0.445000  0.632100  0.978000  1.0  0.1436
  H  H63  1  0.368800  0.464000  0.891400  1.0  0.1184
  H  H64  1  0.827700  0.140300  0.240400  1.0  0.1363
  H  H65  1  0.989400  0.179900  0.331700  1.0  0.1248
  H  H66  1  0.696800  0.101100  0.151000  1.0  0.11
  H  H67  1  0.445800  0.480100  0.562600  1.0  0.1157
  H  H68  1  0.656400  0.140600  0.459500  1.0  0.1386
  H  H69  1  0.857400  0.362200  0.430200  1.0  0.1109
  H  H70  1  0.526400  0.101000  0.369700  1.0  0.1171
  C  C71  1  0.759600  0.008780  0.999800  1.0  0.696
  C  C72  1  0.535300  0.115280  0.861800  1.0  0.746
  C  C73  1  0.837900  0.975370  0.592900  1.0  -0.128
  C  C74  1  0.476200  0.174740  0.868900  1.0  -0.1023
  C  C75  1  0.807100  0.992610  0.092300  1.0  -0.1636
  C  C76  1  0.791000  0.988520  0.683600  1.0  0.6814
  C  C77  1  0.955700  0.983200  0.190100  1.0  -0.1405
  C  C78  1  0.901000  0.957090  0.257400  1.0  0.2619
  C  C79  1  0.753100  0.965920  0.161200  1.0  -0.0141
  C  C80  1  0.880300  0.919250  0.575600  1.0  -0.0127
  C  C81  1  0.834500  0.019300  0.523500  1.0  0.0078
  C  C82  1  0.798700  0.948660  0.243900  1.0  -0.2259
  C  C83  1  0.098100  0.403370  0.751100  1.0  -0.139
  C  C84  1  0.374200  0.282100  0.894300  1.0  0.2823
  C  C85  1  0.513800  0.229960  0.839600  1.0  -0.0238
  C  C86  1  0.333100  0.227700  0.921300  1.0  -0.1492
  C  C87  1  0.916900  0.905930  0.489500  1.0  -0.2259
  C  C88  1  0.871100  0.006500  0.437700  1.0  -0.2177
  C  C89  1  0.014300  0.431360  0.691600  1.0  0.7498
  C  C90  1  0.266500  0.367100  0.766200  1.0  -0.1943
  C  C91  1  0.463300  0.283260  0.852000  1.0  -0.2413
  C  C92  1  0.188400  0.390980  0.713300  1.0  0.0045
  C  C93  1  0.908800  0.001500  0.107900  1.0  -0.0328
  C  C94  1  0.911000  0.949800  0.421700  1.0  0.3015
  C  C95  1  0.164300  0.367000  0.897000  1.0  -0.1886
  C  C96  1  0.252500  0.354400  0.857700  1.0  0.3288
  C  C97  1  0.384100  0.174490  0.910200  1.0  -0.0227
  C  C98  1  0.087100  0.391000  0.843300  1.0  -0.0124
  C  C99  1  0.740400  0.508780  0.500200  1.0  0.6959
  C  C100  1  0.964700  0.615280  0.638200  1.0  0.7453
  C  C101  1  0.662100  0.475370  0.907100  1.0  -0.1298
  C  C102  1  0.023800  0.674740  0.631100  1.0  -0.104
  C  C103  1  0.692900  0.492610  0.407700  1.0  -0.1639
  C  C104  1  0.709000  0.488520  0.816400  1.0  0.6803
  C  C105  1  0.544300  0.483200  0.309900  1.0  -0.1409
  C  C106  1  0.599000  0.457090  0.242600  1.0  0.2628
  C  C107  1  0.746900  0.465920  0.338800  1.0  -0.0145
  C  C108  1  0.619700  0.419250  0.924400  1.0  -0.0132
  C  C109  1  0.665500  0.519300  0.976500  1.0  0.0099
  C  C110  1  0.701300  0.448660  0.256100  1.0  -0.2262
  C  C111  1  0.401900  0.903370  0.748900  1.0  -0.139
  C  C112  1  0.125800  0.782100  0.605700  1.0  0.2834
  C  C113  1  0.986200  0.729960  0.660400  1.0  -0.0228
  C  C114  1  0.166900  0.727700  0.578700  1.0  -0.1479
  C  C115  1  0.583100  0.405930  0.010500  1.0  -0.2274
  C  C116  1  0.628900  0.506500  0.062300  1.0  -0.2167
  C  C117  1  0.485700  0.931360  0.808400  1.0  0.7514
  C  C118  1  0.233500  0.867100  0.733800  1.0  -0.1931
  C  C119  1  0.036700  0.783260  0.648000  1.0  -0.2424
  C  C120  1  0.311600  0.890980  0.786700  1.0  0.005
  C  C121  1  0.591200  0.501500  0.392100  1.0  -0.0305
  C  C122  1  0.589000  0.449800  0.078300  1.0  0.3027
  C  C123  1  0.335700  0.867000  0.603000  1.0  -0.188
  C  C124  1  0.247500  0.854400  0.642300  1.0  0.329
  C  C125  1  0.115900  0.674490  0.589800  1.0  -0.0215
  C  C126  1  0.412900  0.891000  0.656700  1.0  -0.0129
  C  C127  1  0.240400  0.991220  0.000200  1.0  0.6958
  C  C128  1  0.464700  0.884720  0.138200  1.0  0.7458
  C  C129  1  0.162100  0.024630  0.407100  1.0  -0.1303
  C  C130  1  0.523800  0.825260  0.131100  1.0  -0.1037
  C  C131  1  0.192900  0.007390  0.907700  1.0  -0.1633
  C  C132  1  0.209000  0.011480  0.316400  1.0  0.6804
  C  C133  1  0.044300  0.016800  0.809900  1.0  -0.1413
  C  C134  1  0.099000  0.042910  0.742600  1.0  0.2632
  C  C135  1  0.246900  0.034080  0.838800  1.0  -0.0139
  C  C136  1  0.119700  0.080750  0.424400  1.0  -0.0126
  C  C137  1  0.165500  0.980700  0.476500  1.0  0.0104
  C  C138  1  0.201300  0.051340  0.756100  1.0  -0.2248
  C  C139  1  0.901900  0.596630  0.248900  1.0  -0.1381
  C  C140  1  0.625800  0.717900  0.105700  1.0  0.283
  C  C141  1  0.486200  0.770040  0.160400  1.0  -0.0231
  C  C142  1  0.666900  0.772300  0.078700  1.0  -0.1487
  C  C143  1  0.083100  0.094070  0.510500  1.0  -0.228
  C  C144  1  0.128900  0.993500  0.562300  1.0  -0.217
  C  C145  1  0.985700  0.568640  0.308400  1.0  0.7517
  C  C146  1  0.733500  0.632900  0.233800  1.0  -0.1946
  C  C147  1  0.536700  0.716740  0.148000  1.0  -0.2425
  C  C148  1  0.811600  0.609020  0.286700  1.0  0.005
  C  C149  1  0.091200  0.998500  0.892100  1.0  -0.0303
  C  C150  1  0.089000  0.050200  0.578300  1.0  0.3029
  C  C151  1  0.835700  0.633000  0.103000  1.0  -0.1884
  C  C152  1  0.747500  0.645600  0.142300  1.0  0.3295
  C  C153  1  0.615900  0.825510  0.089800  1.0  -0.0215
  C  C154  1  0.912900  0.609000  0.156700  1.0  -0.0126
  C  C155  1  0.259600  0.491220  0.499800  1.0  0.6957
  C  C156  1  0.035300  0.384720  0.361800  1.0  0.7462
  C  C157  1  0.337900  0.524630  0.092900  1.0  -0.1281
  C  C158  1  0.976200  0.325260  0.368900  1.0  -0.103
  C  C159  1  0.307100  0.507390  0.592300  1.0  -0.164
  C  C160  1  0.291000  0.511480  0.183600  1.0  0.6815
  C  C161  1  0.455700  0.516800  0.690100  1.0  -0.1406
  C  C162  1  0.401000  0.542910  0.757400  1.0  0.2636
  C  C163  1  0.253100  0.534080  0.661200  1.0  -0.0133
  C  C164  1  0.380300  0.580750  0.075600  1.0  -0.0133
  C  C165  1  0.334500  0.480700  0.023500  1.0  0.0093
  C  C166  1  0.298700  0.551340  0.743900  1.0  -0.2277
  C  C167  1  0.598100  0.096630  0.251100  1.0  -0.1373
  C  C168  1  0.874200  0.217900  0.394300  1.0  0.2821
  C  C169  1  0.013800  0.270040  0.339600  1.0  -0.0237
  C  C170  1  0.833100  0.272300  0.421300  1.0  -0.1498
  C  C171  1  0.416900  0.594070  0.989500  1.0  -0.2277
  C  C172  1  0.371100  0.493500  0.937700  1.0  -0.2175
  C  C173  1  0.514300  0.068640  0.191600  1.0  0.75
  C  C174  1  0.766500  0.132900  0.266200  1.0  -0.1946
  C  C175  1  0.963300  0.216740  0.352000  1.0  -0.2411
  C  C176  1  0.688400  0.109020  0.213300  1.0  0.0042
  C  C177  1  0.408800  0.498500  0.607900  1.0  -0.0322
  C  C178  1  0.411000  0.550200  0.921700  1.0  0.3022
  C  C179  1  0.664300  0.133000  0.397000  1.0  -0.1877
  C  C180  1  0.752500  0.145600  0.357700  1.0  0.3292
  C  C181  1  0.884100  0.325510  0.410200  1.0  -0.0223
  C  C182  1  0.587100  0.109000  0.343300  1.0  -0.0128
  O  O183  1  0.672700  0.987170  0.980000  1.0  -0.6762
  O  O184  1  0.794000  0.948820  0.745830  1.0  -0.6417
  O  O185  1  0.746800  0.038780  0.692670  1.0  -0.5575
  O  O186  1  0.026800  0.429720  0.605810  1.0  -0.6237
  O  O187  1  0.620900  0.118930  0.833800  1.0  -0.6304
  O  O188  1  0.950800  0.935390  0.337190  1.0  -0.2668
  O  O189  1  0.492800  0.067200  0.881700  1.0  -0.635
  O  O190  1  0.805700  0.038590  0.942550  1.0  -0.5888
  O  O191  1  0.940800  0.452310  0.730560  1.0  -0.6068
  O  O192  1  0.330400  0.336700  0.919900  1.0  -0.2517
  O  O193  1  0.827300  0.487170  0.520000  1.0  -0.6748
  O  O194  1  0.706000  0.448820  0.754170  1.0  -0.6427
  O  O195  1  0.753200  0.538780  0.807330  1.0  -0.5563
  O  O196  1  0.473200  0.929720  0.894190  1.0  -0.6229
  O  O197  1  0.879100  0.618930  0.666200  1.0  -0.6291
  O  O198  1  0.549200  0.435390  0.162810  1.0  -0.2666
  O  O199  1  0.007200  0.567200  0.618300  1.0  -0.6364
  O  O200  1  0.694300  0.538590  0.557450  1.0  -0.5898
  O  O201  1  0.559200  0.952310  0.769440  1.0  -0.6068
  O  O202  1  0.169600  0.836700  0.580100  1.0  -0.2506
  O  O203  1  0.327300  0.012830  0.020000  1.0  -0.6765
  O  O204  1  0.206000  0.051180  0.254170  1.0  -0.6409
  O  O205  1  0.253200  0.961220  0.307330  1.0  -0.5566
  O  O206  1  0.973200  0.570280  0.394190  1.0  -0.6222
  O  O207  1  0.379100  0.881070  0.166200  1.0  -0.6295
  O  O208  1  0.049200  0.064610  0.662810  1.0  -0.2673
  O  O209  1  0.507200  0.932800  0.118300  1.0  -0.6374
  O  O210  1  0.194300  0.961410  0.057450  1.0  -0.5901
  O  O211  1  0.059200  0.547690  0.269440  1.0  -0.6061
  O  O212  1  0.669600  0.663300  0.080100  1.0  -0.2499
  O  O213  1  0.172700  0.512830  0.480000  1.0  -0.6763
  O  O214  1  0.294000  0.551180  0.245830  1.0  -0.6427
  O  O215  1  0.246800  0.461220  0.192670  1.0  -0.5559
  O  O216  1  0.526800  0.070280  0.105810  1.0  -0.6231
  O  O217  1  0.120900  0.381070  0.333800  1.0  -0.6317
  O  O218  1  0.450800  0.564610  0.837190  1.0  -0.2678
  O  O219  1  0.992800  0.432800  0.381700  1.0  -0.6362
  O  O220  1  0.305700  0.461410  0.442550  1.0  -0.5894
  O  O221  1  0.440800  0.047690  0.230560  1.0  -0.6061
  O  O222  1  0.830400  0.163300  0.419900  1.0  -0.2515
