# generated using pymatgen
data_Zn4H28C28N8O5
_symmetry_space_group_name_H-M   'P 1'
_cell_length_a   11.55850000
_cell_length_b   11.55850000
_cell_length_c   25.81900000
_cell_angle_alpha   90.00000000
_cell_angle_beta   90.00000000
_cell_angle_gamma   90.00000000
_symmetry_Int_Tables_number   1
_chemical_formula_structural   Zn4H28C28N8O5
_chemical_formula_sum   'Zn8 H56 C56 N16 O10'
_cell_volume   3449.39057357
_cell_formula_units_Z   2
loop_
 _symmetry_equiv_pos_site_id
 _symmetry_equiv_pos_as_xyz
  1  'x, y, z'
loop_
 _atom_site_type_symbol
 _atom_site_label
 _atom_site_symmetry_multiplicity
 _atom_site_fract_x
 _atom_site_fract_y
 _atom_site_fract_z
 _atom_site_occupancy
 _atom_site_charge
  Zn  Zn1  1  0.901220  0.098780  0.791860  1.0  0.8699
  Zn  Zn2  1  0.098780  0.901220  0.791860  1.0  0.8699
  Zn  Zn3  1  0.901220  0.901220  0.291860  1.0  0.8698
  Zn  Zn4  1  0.098780  0.098780  0.291860  1.0  0.87
  Zn  Zn5  1  0.098780  0.098780  0.708140  1.0  0.8695
  Zn  Zn6  1  0.901220  0.901220  0.708140  1.0  0.8692
  Zn  Zn7  1  0.098780  0.901220  0.208140  1.0  0.8693
  Zn  Zn8  1  0.901220  0.098780  0.208140  1.0  0.8694
  H  H9  1  0.679300  0.176100  0.839700  1.0  0.1187
  H  H10  1  0.562000  0.209700  0.810400  1.0  0.1291
  H  H11  1  0.562900  0.105500  0.851200  1.0  0.1299
  H  H12  1  0.320700  0.823900  0.839700  1.0  0.12
  H  H13  1  0.438000  0.790300  0.810400  1.0  0.1292
  H  H14  1  0.437100  0.894500  0.851200  1.0  0.1304
  H  H15  1  0.823900  0.679300  0.339700  1.0  0.1185
  H  H16  1  0.790300  0.562000  0.310400  1.0  0.1284
  H  H17  1  0.894500  0.562900  0.351200  1.0  0.1306
  H  H18  1  0.176100  0.320700  0.339700  1.0  0.1215
  H  H19  1  0.209700  0.438000  0.310400  1.0  0.1289
  H  H20  1  0.105500  0.437100  0.351200  1.0  0.1299
  H  H21  1  0.320700  0.176100  0.660300  1.0  0.1202
  H  H22  1  0.438000  0.209700  0.689600  1.0  0.1286
  H  H23  1  0.437100  0.105500  0.648800  1.0  0.1295
  H  H24  1  0.679300  0.823900  0.660300  1.0  0.1179
  H  H25  1  0.562000  0.790300  0.689600  1.0  0.1285
  H  H26  1  0.562900  0.894500  0.648800  1.0  0.1296
  H  H27  1  0.176100  0.679300  0.160300  1.0  0.1194
  H  H28  1  0.209700  0.562000  0.189600  1.0  0.1288
  H  H29  1  0.105500  0.562900  0.148800  1.0  0.1293
  H  H30  1  0.823900  0.320700  0.160300  1.0  0.1197
  H  H31  1  0.790300  0.438000  0.189600  1.0  0.1285
  H  H32  1  0.894500  0.437100  0.148800  1.0  0.1292
  H  H33  1  0.320700  0.823900  0.160300  1.0  0.1196
  H  H34  1  0.438000  0.790300  0.189600  1.0  0.1294
  H  H35  1  0.437100  0.894500  0.148800  1.0  0.1298
  H  H36  1  0.679300  0.176100  0.160300  1.0  0.1182
  H  H37  1  0.562000  0.209700  0.189600  1.0  0.1286
  H  H38  1  0.562900  0.105500  0.148800  1.0  0.1294
  H  H39  1  0.176100  0.320700  0.660300  1.0  0.1207
  H  H40  1  0.209700  0.438000  0.689600  1.0  0.1292
  H  H41  1  0.105500  0.437100  0.648800  1.0  0.1299
  H  H42  1  0.823900  0.679300  0.660300  1.0  0.1186
  H  H43  1  0.790300  0.562000  0.689600  1.0  0.1284
  H  H44  1  0.894500  0.562900  0.648800  1.0  0.129
  H  H45  1  0.679300  0.823900  0.339700  1.0  0.1193
  H  H46  1  0.562000  0.790300  0.310400  1.0  0.1285
  H  H47  1  0.562900  0.894500  0.351200  1.0  0.1302
  H  H48  1  0.320700  0.176100  0.339700  1.0  0.1199
  H  H49  1  0.438000  0.209700  0.310400  1.0  0.1287
  H  H50  1  0.437100  0.105500  0.351200  1.0  0.1301
  H  H51  1  0.823900  0.320700  0.839700  1.0  0.1204
  H  H52  1  0.790300  0.438000  0.810400  1.0  0.1285
  H  H53  1  0.894500  0.437100  0.851200  1.0  0.1303
  H  H54  1  0.176100  0.679300  0.839700  1.0  0.1194
  H  H55  1  0.209700  0.562000  0.810400  1.0  0.1287
  H  H56  1  0.105500  0.562900  0.851200  1.0  0.1299
  H  H57  1  0.876300  0.123700  0.955600  1.0  0.1029
  H  H58  1  0.123700  0.876300  0.955600  1.0  0.1028
  H  H59  1  0.876300  0.876300  0.455600  1.0  0.1028
  H  H60  1  0.123700  0.123700  0.455600  1.0  0.1031
  H  H61  1  0.123700  0.123700  0.544400  1.0  0.1028
  H  H62  1  0.876300  0.876300  0.544400  1.0  0.1027
  H  H63  1  0.123700  0.876300  0.044400  1.0  0.1028
  H  H64  1  0.876300  0.123700  0.044400  1.0  0.1027
  C  C65  1  0.636800  0.063300  0.782190  1.0  0.2355
  C  C66  1  0.607800  0.145700  0.824500  1.0  -0.3692
  C  C67  1  0.363200  0.936700  0.782190  1.0  0.2353
  C  C68  1  0.392200  0.854300  0.824500  1.0  -0.3696
  C  C69  1  0.936700  0.636800  0.282190  1.0  0.2351
  C  C70  1  0.854300  0.607800  0.324500  1.0  -0.368
  C  C71  1  0.063300  0.363200  0.282190  1.0  0.2353
  C  C72  1  0.145700  0.392200  0.324500  1.0  -0.3688
  C  C73  1  0.363200  0.063300  0.717810  1.0  0.2341
  C  C74  1  0.392200  0.145700  0.675500  1.0  -0.3693
  C  C75  1  0.636800  0.936700  0.717810  1.0  0.2347
  C  C76  1  0.607800  0.854300  0.675500  1.0  -0.3679
  C  C77  1  0.063300  0.636800  0.217810  1.0  0.2341
  C  C78  1  0.145700  0.607800  0.175500  1.0  -0.3685
  C  C79  1  0.936700  0.363200  0.217810  1.0  0.2341
  C  C80  1  0.854300  0.392200  0.175500  1.0  -0.3674
  C  C81  1  0.363200  0.936700  0.217810  1.0  0.2359
  C  C82  1  0.392200  0.854300  0.175500  1.0  -0.3694
  C  C83  1  0.636800  0.063300  0.217810  1.0  0.2362
  C  C84  1  0.607800  0.145700  0.175500  1.0  -0.3674
  C  C85  1  0.063300  0.363200  0.717810  1.0  0.2361
  C  C86  1  0.145700  0.392200  0.675500  1.0  -0.3686
  C  C87  1  0.936700  0.636800  0.717810  1.0  0.2358
  C  C88  1  0.854300  0.607800  0.675500  1.0  -0.3673
  C  C89  1  0.636800  0.936700  0.282190  1.0  0.234
  C  C90  1  0.607800  0.854300  0.324500  1.0  -0.3694
  C  C91  1  0.363200  0.063300  0.282190  1.0  0.2335
  C  C92  1  0.392200  0.145700  0.324500  1.0  -0.3692
  C  C93  1  0.936700  0.363200  0.782190  1.0  0.2332
  C  C94  1  0.854300  0.392200  0.824500  1.0  -0.368
  C  C95  1  0.063300  0.636800  0.782190  1.0  0.2335
  C  C96  1  0.145700  0.607800  0.824500  1.0  -0.3685
  C  C97  1  0.928200  0.071800  0.973900  1.0  -0.0627
  C  C98  1  0.071800  0.928200  0.973900  1.0  -0.0653
  C  C99  1  0.928200  0.928200  0.473900  1.0  -0.0636
  C  C100  1  0.071800  0.071800  0.473900  1.0  -0.0645
  C  C101  1  0.071800  0.071800  0.526100  1.0  -0.0679
  C  C102  1  0.928200  0.928200  0.526100  1.0  -0.0667
  C  C103  1  0.071800  0.928200  0.026100  1.0  -0.0682
  C  C104  1  0.928200  0.071800  0.026100  1.0  -0.0666
  C  C105  1  0.000000  0.000000  0.888200  1.0  0.7047
  C  C106  1  0.000000  0.000000  0.945500  1.0  -0.1143
  C  C107  1  0.000000  0.000000  0.388200  1.0  0.7047
  C  C108  1  0.000000  0.000000  0.445500  1.0  -0.1143
  C  C109  1  0.000000  0.000000  0.611800  1.0  0.7057
  C  C110  1  0.000000  0.000000  0.554500  1.0  -0.1149
  C  C111  1  0.000000  0.000000  0.111800  1.0  0.7057
  C  C112  1  0.000000  0.000000  0.054500  1.0  -0.1149
  C  C113  1  0.563800  0.000000  0.750000  1.0  -0.1917
  C  C114  1  0.436200  0.000000  0.750000  1.0  -0.1915
  C  C115  1  0.000000  0.563800  0.250000  1.0  -0.1911
  C  C116  1  0.000000  0.436200  0.250000  1.0  -0.1913
  C  C117  1  0.436200  0.000000  0.250000  1.0  -0.1915
  C  C118  1  0.563800  0.000000  0.250000  1.0  -0.1917
  C  C119  1  0.000000  0.436200  0.750000  1.0  -0.1913
  C  C120  1  0.000000  0.563800  0.750000  1.0  -0.1911
  N  N121  1  0.747600  0.039500  0.770000  1.0  -0.3292
  N  N122  1  0.252400  0.960500  0.770000  1.0  -0.3289
  N  N123  1  0.960500  0.747600  0.270000  1.0  -0.3285
  N  N124  1  0.039500  0.252400  0.270000  1.0  -0.3279
  N  N125  1  0.252400  0.039500  0.730000  1.0  -0.3282
  N  N126  1  0.747600  0.960500  0.730000  1.0  -0.328
  N  N127  1  0.039500  0.747600  0.230000  1.0  -0.3271
  N  N128  1  0.960500  0.252400  0.230000  1.0  -0.3269
  N  N129  1  0.252400  0.960500  0.230000  1.0  -0.329
  N  N130  1  0.747600  0.039500  0.230000  1.0  -0.3288
  N  N131  1  0.039500  0.252400  0.730000  1.0  -0.3278
  N  N132  1  0.960500  0.747600  0.730000  1.0  -0.3281
  N  N133  1  0.747600  0.960500  0.270000  1.0  -0.3284
  N  N134  1  0.252400  0.039500  0.270000  1.0  -0.3285
  N  N135  1  0.960500  0.252400  0.770000  1.0  -0.3273
  N  N136  1  0.039500  0.747600  0.770000  1.0  -0.3278
  O  O137  1  0.930800  0.069200  0.865260  1.0  -0.5987
  O  O138  1  0.069200  0.930800  0.865260  1.0  -0.5992
  O  O139  1  0.930800  0.930800  0.365260  1.0  -0.5989
  O  O140  1  0.069200  0.069200  0.365260  1.0  -0.599
  O  O141  1  0.069200  0.069200  0.634740  1.0  -0.599
  O  O142  1  0.930800  0.930800  0.634740  1.0  -0.5989
  O  O143  1  0.069200  0.930800  0.134740  1.0  -0.599
  O  O144  1  0.930800  0.069200  0.134740  1.0  -0.5988
  O  O145  1  0.000000  0.000000  0.750000  1.0  -0.9762
  O  O146  1  0.000000  0.000000  0.250000  1.0  -0.9762
