# generated using pymatgen
data_Cd3H32(C14O5)4
_symmetry_space_group_name_H-M   'P 1'
_cell_length_a   15.13940000
_cell_length_b   16.56700000
_cell_length_c   17.86800000
_cell_angle_alpha   95.39900000
_cell_angle_beta   97.07400000
_cell_angle_gamma   102.33200000
_symmetry_Int_Tables_number   1
_chemical_formula_structural   Cd3H32(C14O5)4
_chemical_formula_sum   'Cd6 H64 C112 O40'
_cell_volume   4311.18907935
_cell_formula_units_Z   2
loop_
 _symmetry_equiv_pos_site_id
 _symmetry_equiv_pos_as_xyz
  1  'x, y, z'
loop_
 _atom_site_type_symbol
 _atom_site_label
 _atom_site_symmetry_multiplicity
 _atom_site_fract_x
 _atom_site_fract_y
 _atom_site_fract_z
 _atom_site_occupancy
 _atom_site_charge
  Cd  Cd1  1  0.313970  0.017640  0.366230  1.0  1.1231
  Cd  Cd2  1  0.868370  0.634160  0.074360  1.0  1.108
  Cd  Cd3  1  0.686030  0.982360  0.633770  1.0  1.1224
  Cd  Cd4  1  0.131630  0.365840  0.925640  1.0  1.108
  Cd  Cd5  1  0.500000  0.000000  0.500000  1.0  1.1371
  Cd  Cd6  1  0.000000  0.500000  0.000000  1.0  1.1633
  H  H7  1  0.577700  0.634800  0.155700  1.0  0.1216
  H  H8  1  0.826200  0.468700  0.765400  1.0  0.1413
  H  H9  1  0.446200  0.688800  0.172100  1.0  0.1128
  H  H10  1  0.700400  0.429700  0.667000  1.0  0.1226
  H  H11  1  0.534500  0.503900  0.803500  1.0  0.129
  H  H12  1  0.467400  0.438900  0.524800  1.0  0.113
  H  H13  1  0.569200  0.310000  0.677800  1.0  0.1058
  H  H14  1  0.652600  0.541200  0.894800  1.0  0.101
  H  H15  1  0.339300  0.711100  0.050000  1.0  0.14
  H  H16  1  0.556300  0.892600  0.092000  1.0  0.1111
  H  H17  1  0.092800  0.499300  0.696400  1.0  0.1223
  H  H18  1  0.405700  0.315600  0.443500  1.0  0.1176
  H  H19  1  0.065200  0.599800  0.622300  1.0  0.1364
  H  H20  1  0.186900  0.653700  0.027300  1.0  0.1153
  H  H21  1  0.010000  0.794100  0.540400  1.0  0.1305
  H  H22  1  0.506400  0.186900  0.598200  1.0  0.1091
  H  H23  1  0.147200  0.816100  0.193700  1.0  0.1277
  H  H24  1  0.300000  0.866300  0.223200  1.0  0.1252
  H  H25  1  0.032800  0.740900  0.808000  1.0  0.1329
  H  H26  1  0.676200  0.838200  0.064700  1.0  0.1135
  H  H27  1  0.051700  0.636600  0.880100  1.0  0.1101
  H  H28  1  0.116000  0.860400  0.470500  1.0  0.1166
  H  H29  1  0.659900  0.074800  0.138900  1.0  0.1369
  H  H30  1  0.211600  0.765800  0.694000  1.0  0.1325
  H  H31  1  0.017700  0.084100  0.343100  1.0  0.1128
  H  H32  1  0.738900  0.925200  0.286500  1.0  0.1505
  H  H33  1  0.532800  0.077200  0.198200  1.0  0.1156
  H  H34  1  0.318800  0.832900  0.625300  1.0  0.1181
  H  H35  1  0.040300  0.916100  0.174700  1.0  0.11
  H  H36  1  0.614900  0.932700  0.347400  1.0  0.1018
  H  H37  1  0.890600  0.909000  0.120400  1.0  0.1343
  H  H38  1  0.868000  0.078400  0.289300  1.0  0.1148
  H  H39  1  0.422300  0.365200  0.844300  1.0  0.1218
  H  H40  1  0.173800  0.531300  0.234600  1.0  0.1438
  H  H41  1  0.553800  0.311200  0.827900  1.0  0.1132
  H  H42  1  0.299600  0.570300  0.333000  1.0  0.1225
  H  H43  1  0.465500  0.496100  0.196500  1.0  0.1283
  H  H44  1  0.532600  0.561100  0.475200  1.0  0.113
  H  H45  1  0.430800  0.690000  0.322200  1.0  0.1058
  H  H46  1  0.347400  0.458800  0.105200  1.0  0.1013
  H  H47  1  0.660700  0.288900  0.950000  1.0  0.14
  H  H48  1  0.443700  0.107400  0.908000  1.0  0.1102
  H  H49  1  0.907200  0.500700  0.303600  1.0  0.1222
  H  H50  1  0.594300  0.684400  0.556500  1.0  0.1174
  H  H51  1  0.934800  0.400200  0.377700  1.0  0.137
  H  H52  1  0.813100  0.346300  0.972700  1.0  0.1142
  H  H53  1  0.990000  0.205900  0.459600  1.0  0.1294
  H  H54  1  0.493600  0.813100  0.401800  1.0  0.1091
  H  H55  1  0.852800  0.183900  0.806300  1.0  0.1274
  H  H56  1  0.700000  0.133700  0.776800  1.0  0.1253
  H  H57  1  0.967200  0.259100  0.192000  1.0  0.1328
  H  H58  1  0.323800  0.161800  0.935300  1.0  0.1134
  H  H59  1  0.948300  0.363400  0.119900  1.0  0.1102
  H  H60  1  0.884000  0.139600  0.529500  1.0  0.1164
  H  H61  1  0.340100  0.925200  0.861100  1.0  0.1365
  H  H62  1  0.788400  0.234200  0.306000  1.0  0.1324
  H  H63  1  0.982300  0.915900  0.656900  1.0  0.1126
  H  H64  1  0.261100  0.074800  0.713500  1.0  0.151
  H  H65  1  0.467200  0.922800  0.801800  1.0  0.1156
  H  H66  1  0.681200  0.167100  0.374700  1.0  0.1177
  H  H67  1  0.959700  0.083900  0.825300  1.0  0.1102
  H  H68  1  0.385100  0.067300  0.652600  1.0  0.1013
  H  H69  1  0.109400  0.091000  0.879600  1.0  0.1347
  H  H70  1  0.132000  0.921600  0.710700  1.0  0.1148
  C  C71  1  0.573900  0.686800  0.141800  1.0  -0.0687
  C  C72  1  0.513800  0.385400  0.615200  1.0  0.2088
  C  C73  1  0.768900  0.477300  0.772400  1.0  -0.0919
  C  C74  1  0.494900  0.720400  0.152900  1.0  -0.1491
  C  C75  1  0.694100  0.457100  0.713200  1.0  -0.1364
  C  C76  1  0.593100  0.501300  0.794700  1.0  -0.0953
  C  C77  1  0.613200  0.476900  0.722300  1.0  0.1649
  C  C78  1  0.472100  0.388100  0.541000  1.0  -0.2005
  C  C79  1  0.532500  0.311100  0.632400  1.0  -0.1607
  C  C80  1  0.492000  0.797400  0.135600  1.0  0.3505
  C  C81  1  0.661700  0.519500  0.847200  1.0  -0.0056
  C  C82  1  0.300200  0.730800  0.079600  1.0  -0.1884
  C  C83  1  0.558900  0.839700  0.104300  1.0  -0.1927
  C  C84  1  0.642200  0.732800  0.110600  1.0  -0.1108
  C  C85  1  0.752400  0.509300  0.838800  1.0  0.0036
  C  C86  1  0.079600  0.547600  0.718500  1.0  -0.0159
  C  C87  1  0.819900  0.530500  0.907600  1.0  0.7273
  C  C88  1  0.437500  0.314000  0.491100  1.0  -0.0244
  C  C89  1  0.064200  0.608000  0.674400  1.0  -0.1947
  C  C90  1  0.210000  0.698300  0.065300  1.0  -0.0398
  C  C91  1  0.072200  0.801800  0.557400  1.0  -0.1924
  C  C92  1  0.093200  0.491500  0.841800  1.0  0.706
  C  C93  1  0.335000  0.794700  0.139600  1.0  0.3267
  C  C94  1  0.497800  0.237300  0.583300  1.0  -0.029
  C  C95  1  0.186700  0.794600  0.165800  1.0  -0.0303
  C  C96  1  0.726700  0.700300  0.096500  1.0  0.6998
  C  C97  1  0.450500  0.239400  0.512300  1.0  -0.1248
  C  C98  1  0.151700  0.730100  0.105900  1.0  -0.1065
  C  C99  1  0.075400  0.557900  0.795600  1.0  -0.1275
  C  C100  1  0.047400  0.680800  0.707300  1.0  0.2872
  C  C101  1  0.054200  0.697600  0.085800  1.0  0.6699
  C  C102  1  0.276600  0.824800  0.182500  1.0  -0.1852
  C  C103  1  0.043700  0.691700  0.785400  1.0  -0.1416
  C  C104  1  0.099900  0.774700  0.622200  1.0  0.3027
  C  C105  1  0.632200  0.807900  0.089600  1.0  -0.0654
  C  C106  1  0.056200  0.630100  0.828500  1.0  -0.0087
  C  C107  1  0.135600  0.841300  0.515500  1.0  -0.022
  C  C108  1  0.650100  0.045100  0.179900  1.0  -0.1627
  C  C109  1  0.193000  0.785300  0.648900  1.0  -0.1019
  C  C110  1  0.992200  0.049000  0.298400  1.0  -0.0157
  C  C111  1  0.697700  0.955900  0.268900  1.0  -0.2363
  C  C112  1  0.573800  0.046200  0.215500  1.0  -0.0278
  C  C113  1  0.256800  0.824900  0.607700  1.0  0.0248
  C  C114  1  0.406800  0.159700  0.462100  1.0  0.7345
  C  C115  1  0.298200  0.896900  0.496300  1.0  0.7253
  C  C116  1  0.711500  0.999300  0.205900  1.0  0.2403
  C  C117  1  0.228900  0.852500  0.540600  1.0  -0.1191
  C  C118  1  0.005700  0.948500  0.197900  1.0  -0.0288
  C  C119  1  0.866500  0.993600  0.199900  1.0  0.3066
  C  C120  1  0.622500  0.959300  0.304300  1.0  0.0072
  C  C121  1  0.916200  0.944300  0.164900  1.0  -0.1767
  C  C122  1  0.902600  0.045900  0.266400  1.0  -0.2284
  C  C123  1  0.557800  0.001700  0.277000  1.0  -0.1589
  C  C124  1  0.043700  0.000100  0.264400  1.0  -0.1202
  C  C125  1  0.474000  0.000100  0.311800  1.0  0.6695
  C  C126  1  0.139300  0.003700  0.301000  1.0  0.7036
  C  C127  1  0.426100  0.313200  0.858200  1.0  -0.0693
  C  C128  1  0.486200  0.614600  0.384800  1.0  0.2092
  C  C129  1  0.231100  0.522700  0.227600  1.0  -0.0926
  C  C130  1  0.505100  0.279600  0.847100  1.0  -0.1496
  C  C131  1  0.305900  0.542900  0.286800  1.0  -0.1397
  C  C132  1  0.406900  0.498700  0.205300  1.0  -0.0932
  C  C133  1  0.386800  0.523100  0.277700  1.0  0.1675
  C  C134  1  0.527900  0.611900  0.459000  1.0  -0.1992
  C  C135  1  0.467500  0.688900  0.367600  1.0  -0.1594
  C  C136  1  0.508000  0.202600  0.864400  1.0  0.3509
  C  C137  1  0.338300  0.480500  0.152800  1.0  -0.009
  C  C138  1  0.699800  0.269200  0.920400  1.0  -0.1904
  C  C139  1  0.441100  0.160300  0.895700  1.0  -0.1921
  C  C140  1  0.357800  0.267200  0.889400  1.0  -0.1115
  C  C141  1  0.247600  0.490700  0.161200  1.0  0.0031
  C  C142  1  0.920400  0.452400  0.281500  1.0  -0.0165
  C  C143  1  0.180100  0.469500  0.092400  1.0  0.727
  C  C144  1  0.562500  0.686000  0.508900  1.0  -0.0246
  C  C145  1  0.935800  0.392000  0.325600  1.0  -0.1947
  C  C146  1  0.790000  0.301700  0.934700  1.0  -0.0406
  C  C147  1  0.927800  0.198200  0.442600  1.0  -0.191
  C  C148  1  0.906800  0.508500  0.158200  1.0  0.7057
  C  C149  1  0.665000  0.205300  0.860400  1.0  0.3261
  C  C150  1  0.502200  0.762700  0.416700  1.0  -0.0276
  C  C151  1  0.813300  0.205400  0.834200  1.0  -0.0293
  C  C152  1  0.273300  0.299700  0.903500  1.0  0.7008
  C  C153  1  0.549500  0.760600  0.487700  1.0  -0.1249
  C  C154  1  0.848300  0.269900  0.894100  1.0  -0.1044
  C  C155  1  0.924600  0.442100  0.204400  1.0  -0.1272
  C  C156  1  0.952600  0.319200  0.292700  1.0  0.2903
  C  C157  1  0.945800  0.302400  0.914200  1.0  0.6715
  C  C158  1  0.723400  0.175200  0.817500  1.0  -0.1865
  C  C159  1  0.956300  0.308300  0.214600  1.0  -0.1409
  C  C160  1  0.900100  0.225300  0.377800  1.0  0.3036
  C  C161  1  0.367800  0.192100  0.910400  1.0  -0.0647
  C  C162  1  0.943800  0.369900  0.171500  1.0  -0.0088
  C  C163  1  0.864400  0.158700  0.484500  1.0  -0.0227
  C  C164  1  0.349900  0.954900  0.820100  1.0  -0.166
  C  C165  1  0.807000  0.214700  0.351100  1.0  -0.1025
  C  C166  1  0.007800  0.951000  0.701600  1.0  -0.0162
  C  C167  1  0.302300  0.044100  0.731100  1.0  -0.2377
  C  C168  1  0.426200  0.953800  0.784500  1.0  -0.024
  C  C169  1  0.743200  0.175100  0.392300  1.0  0.0223
  C  C170  1  0.593200  0.840300  0.537900  1.0  0.7353
  C  C171  1  0.701800  0.103100  0.503700  1.0  0.7248
  C  C172  1  0.288500  0.000700  0.794100  1.0  0.2406
  C  C173  1  0.771100  0.147500  0.459400  1.0  -0.1202
  C  C174  1  0.994300  0.051500  0.802100  1.0  -0.0283
  C  C175  1  0.133500  0.006400  0.800100  1.0  0.3049
  C  C176  1  0.377500  0.040700  0.695700  1.0  0.0073
  C  C177  1  0.083800  0.055700  0.835100  1.0  -0.1776
  C  C178  1  0.097400  0.954100  0.733600  1.0  -0.2299
  C  C179  1  0.442200  0.998300  0.723000  1.0  -0.1597
  C  C180  1  0.956300  0.999900  0.735600  1.0  -0.1212
  C  C181  1  0.526000  0.999900  0.688200  1.0  0.6679
  C  C182  1  0.860700  0.996300  0.699000  1.0  0.7033
  O  O183  1  0.555000  0.463300  0.648900  1.0  -0.2859
  O  O184  1  0.733300  0.632200  0.120900  1.0  -0.5844
  O  O185  1  0.102300  0.423600  0.809800  1.0  -0.623
  O  O186  1  0.424100  0.833900  0.157600  1.0  -0.2481
  O  O187  1  0.803200  0.580000  0.959700  1.0  -0.656
  O  O188  1  0.999700  0.727900  0.124800  1.0  -0.5968
  O  O189  1  0.033100  0.742200  0.665000  1.0  -0.257
  O  O190  1  0.019600  0.641100  0.030300  1.0  -0.6686
  O  O191  1  0.367800  0.164500  0.397100  1.0  -0.6282
  O  O192  1  0.101900  0.505300  0.914000  1.0  -0.6999
  O  O193  1  0.170600  0.052400  0.360600  1.0  -0.5715
  O  O194  1  0.779700  0.737800  0.063100  1.0  -0.5727
  O  O195  1  0.266900  0.918800  0.433700  1.0  -0.6473
  O  O196  1  0.890200  0.502200  0.907000  1.0  -0.6117
  O  O197  1  0.406500  0.093400  0.487100  1.0  -0.6515
  O  O198  1  0.461300  0.962600  0.369600  1.0  -0.6934
  O  O199  1  0.186600  0.962000  0.269400  1.0  -0.5773
  O  O200  1  0.413400  0.033700  0.281000  1.0  -0.5959
  O  O201  1  0.780200  0.992000  0.163200  1.0  -0.2496
  O  O202  1  0.381300  0.908300  0.522900  1.0  -0.6082
  O  O203  1  0.445000  0.536700  0.351100  1.0  -0.2868
  O  O204  1  0.266700  0.367800  0.879100  1.0  -0.5871
  O  O205  1  0.897700  0.576400  0.190200  1.0  -0.6229
  O  O206  1  0.575900  0.166100  0.842400  1.0  -0.2477
  O  O207  1  0.196800  0.420000  0.040300  1.0  -0.6565
  O  O208  1  0.000300  0.272100  0.875200  1.0  -0.5988
  O  O209  1  0.966900  0.257800  0.335000  1.0  -0.2573
  O  O210  1  0.980400  0.358900  0.969700  1.0  -0.6691
  O  O211  1  0.632200  0.835500  0.602900  1.0  -0.6338
  O  O212  1  0.898100  0.494700  0.086000  1.0  -0.6994
  O  O213  1  0.829400  0.947600  0.639400  1.0  -0.5723
  O  O214  1  0.220300  0.262200  0.936900  1.0  -0.5739
  O  O215  1  0.733100  0.081200  0.566300  1.0  -0.647
  O  O216  1  0.109800  0.497800  0.093000  1.0  -0.6113
  O  O217  1  0.593500  0.906600  0.512900  1.0  -0.6517
  O  O218  1  0.538700  0.037400  0.630400  1.0  -0.6923
  O  O219  1  0.813400  0.038000  0.730600  1.0  -0.5772
  O  O220  1  0.586600  0.966300  0.719000  1.0  -0.5955
  O  O221  1  0.219800  0.008000  0.836800  1.0  -0.2543
  O  O222  1  0.618700  0.091700  0.477100  1.0  -0.6073
