# generated using pymatgen
data_Mn3H22(C21O8)2
_symmetry_space_group_name_H-M   'P 1'
_cell_length_a   9.51500000
_cell_length_b   17.54660000
_cell_length_c   17.54660000
_cell_angle_alpha   103.60400000
_cell_angle_beta   102.77300000
_cell_angle_gamma   77.22660000
_symmetry_Int_Tables_number   1
_chemical_formula_structural   Mn3H22(C21O8)2
_chemical_formula_sum   'Mn6 H44 C84 O32'
_cell_volume   2732.31840530
_cell_formula_units_Z   2
loop_
 _symmetry_equiv_pos_site_id
 _symmetry_equiv_pos_as_xyz
  1  'x, y, z'
loop_
 _atom_site_type_symbol
 _atom_site_label
 _atom_site_symmetry_multiplicity
 _atom_site_fract_x
 _atom_site_fract_y
 _atom_site_fract_z
 _atom_site_occupancy
 _atom_site_charge
  Mn  Mn1  1  0.064990  0.820660  0.312960  1.0  1.1289
  Mn  Mn2  1  0.500000  0.500000  0.000000  1.0  1.2422
  Mn  Mn3  1  0.935010  0.179340  0.687040  1.0  1.1283
  Mn  Mn4  1  0.564990  0.687040  0.179340  1.0  1.1278
  Mn  Mn5  1  0.000000  0.000000  0.500000  1.0  1.2403
  Mn  Mn6  1  0.435010  0.312960  0.820660  1.0  1.1294
  H  H7  1  0.933800  0.837300  0.631100  1.0  0.1307
  H  H8  1  0.630900  0.682200  0.589600  1.0  0.1358
  H  H9  1  0.176900  0.845000  0.606000  1.0  0.0987
  H  H10  1  0.369100  0.317800  0.410400  1.0  0.136
  H  H11  1  0.679200  0.037600  0.910200  1.0  0.1205
  H  H12  1  0.815100  0.283200  0.206400  1.0  0.1106
  H  H13  1  0.018100  0.477400  0.727400  1.0  0.1123
  H  H14  1  0.684900  0.206400  0.283200  1.0  0.1119
  H  H15  1  0.819400  0.143300  0.061700  1.0  0.1213
  H  H16  1  0.433800  0.368900  0.162700  1.0  0.1297
  H  H17  1  0.319400  0.938300  0.856700  1.0  0.1202
  H  H18  1  0.481900  0.727400  0.477400  1.0  0.1124
  H  H19  1  0.073500  0.210000  0.158600  1.0  0.1344
  H  H20  1  0.823100  0.155000  0.394000  1.0  0.099
  H  H21  1  0.323100  0.606000  0.845000  1.0  0.0976
  H  H22  1  0.197000  0.034500  0.783500  1.0  0.0969
  H  H23  1  0.426500  0.158600  0.210000  1.0  0.1351
  H  H24  1  0.082300  0.984800  0.178000  1.0  0.1215
  H  H25  1  0.444300  0.864400  0.160000  1.0  0.1017
  H  H26  1  0.315100  0.793600  0.716800  1.0  0.112
  H  H27  1  0.184900  0.716800  0.793600  1.0  0.1103
  H  H28  1  0.066200  0.162700  0.368900  1.0  0.1297
  H  H29  1  0.573500  0.841400  0.790000  1.0  0.1359
  H  H30  1  0.680600  0.061700  0.143300  1.0  0.1198
  H  H31  1  0.303000  0.783500  0.034500  1.0  0.0959
  H  H32  1  0.803000  0.965500  0.216500  1.0  0.0968
  H  H33  1  0.566200  0.631100  0.837300  1.0  0.1301
  H  H34  1  0.518100  0.272600  0.522600  1.0  0.1121
  H  H35  1  0.981900  0.522600  0.272600  1.0  0.1127
  H  H36  1  0.055700  0.160000  0.864400  1.0  0.1017
  H  H37  1  0.555700  0.135600  0.840000  1.0  0.1013
  H  H38  1  0.676900  0.394000  0.155000  1.0  0.0974
  H  H39  1  0.697000  0.216500  0.965500  1.0  0.0959
  H  H40  1  0.944300  0.840000  0.135600  1.0  0.1016
  H  H41  1  0.320800  0.962400  0.089800  1.0  0.1202
  H  H42  1  0.179200  0.089800  0.962400  1.0  0.1196
  H  H43  1  0.417700  0.178000  0.984800  1.0  0.122
  H  H44  1  0.130900  0.410400  0.317800  1.0  0.1372
  H  H45  1  0.926500  0.790000  0.841400  1.0  0.1342
  H  H46  1  0.180600  0.856700  0.938300  1.0  0.1207
  H  H47  1  0.582300  0.822000  0.015200  1.0  0.1215
  H  H48  1  0.917700  0.015200  0.822000  1.0  0.1218
  H  H49  1  0.869100  0.589600  0.682200  1.0  0.1372
  H  H50  1  0.820800  0.910200  0.037600  1.0  0.1189
  C  C51  1  0.633200  0.022300  0.147700  1.0  -0.1753
  C  C52  1  0.925400  0.936300  0.719100  1.0  -0.1402
  C  C53  1  0.150000  0.669000  0.780800  1.0  -0.2323
  C  C54  1  0.777500  0.186300  0.543100  1.0  0.6816
  C  C55  1  0.425400  0.280900  0.063700  1.0  -0.1447
  C  C56  1  0.183800  0.530400  0.790600  1.0  -0.1255
  C  C57  1  0.266300  0.811000  0.602000  1.0  -0.045
  C  C58  1  0.781400  0.240800  0.841600  1.0  0.7517
  C  C59  1  0.430200  0.330100  0.004500  1.0  0.7672
  C  C60  1  0.233700  0.602000  0.811000  1.0  -0.044
  C  C61  1  0.449200  0.741900  0.525900  1.0  -0.0247
  C  C62  1  0.574600  0.719100  0.936300  1.0  -0.1412
  C  C63  1  0.133200  0.852300  0.977700  1.0  -0.1732
  C  C64  1  0.932500  0.802700  0.732100  1.0  0.2984
  C  C65  1  0.489000  0.021300  0.110700  1.0  0.2832
  C  C66  1  0.982800  0.336700  0.267500  1.0  0.2509
  C  C67  1  0.538600  0.713000  0.592600  1.0  -0.1745
  C  C68  1  0.222500  0.813700  0.456900  1.0  0.6791
  C  C69  1  0.706500  0.964500  0.191100  1.0  -0.0214
  C  C70  1  0.850000  0.331000  0.219200  1.0  -0.2349
  C  C71  1  0.650000  0.219200  0.331000  1.0  -0.235
  C  C72  1  0.417600  0.962800  0.115000  1.0  -0.1795
  C  C73  1  0.866800  0.147700  0.022300  1.0  -0.1722
  C  C74  1  0.923000  0.906600  0.844200  1.0  0.2699
  C  C75  1  0.293500  0.035500  0.808900  1.0  -0.022
  C  C76  1  0.961400  0.592600  0.713000  1.0  -0.1749
  C  C77  1  0.635900  0.904800  0.197000  1.0  -0.1729
  C  C78  1  0.008400  0.157600  0.904600  1.0  -0.0503
  C  C79  1  0.766300  0.398000  0.189000  1.0  -0.0457
  C  C80  1  0.431100  0.314900  0.144700  1.0  -0.1461
  C  C81  1  0.135900  0.803000  0.095200  1.0  -0.1755
  C  C82  1  0.482800  0.732500  0.663300  1.0  0.2533
  C  C83  1  0.722500  0.543100  0.186300  1.0  0.678
  C  C84  1  0.949200  0.474100  0.258100  1.0  -0.0206
  C  C85  1  0.931100  0.855300  0.685100  1.0  -0.133
  C  C86  1  0.050800  0.525900  0.741900  1.0  -0.0227
  C  C87  1  0.017200  0.663300  0.732500  1.0  0.2513
  C  C88  1  0.316200  0.790600  0.530400  1.0  -0.1266
  C  C89  1  0.508400  0.095400  0.842400  1.0  -0.042
  C  C90  1  0.921400  0.961500  0.798700  1.0  -0.1502
  C  C91  1  0.423000  0.155800  0.093400  1.0  0.2708
  C  C92  1  0.038600  0.407400  0.287000  1.0  -0.1759
  C  C93  1  0.582400  0.037200  0.885000  1.0  -0.1808
  C  C94  1  0.082400  0.115000  0.962800  1.0  -0.182
  C  C95  1  0.011000  0.110700  0.021300  1.0  0.2806
  C  C96  1  0.068900  0.144700  0.314900  1.0  -0.1361
  C  C97  1  0.569800  0.669900  0.995500  1.0  0.7472
  C  C98  1  0.350000  0.780800  0.669000  1.0  -0.2355
  C  C99  1  0.568900  0.685100  0.855300  1.0  -0.1501
  C  C100  1  0.517200  0.267500  0.336700  1.0  0.2634
  C  C101  1  0.427200  0.189400  0.173600  1.0  -0.161
  C  C102  1  0.072800  0.173600  0.189400  1.0  -0.1598
  C  C103  1  0.491600  0.904600  0.157600  1.0  -0.0407
  C  C104  1  0.364100  0.095200  0.803000  1.0  -0.1758
  C  C105  1  0.067500  0.197300  0.267900  1.0  0.3081
  C  C106  1  0.461400  0.287000  0.407400  1.0  -0.1749
  C  C107  1  0.577000  0.844200  0.906600  1.0  0.2703
  C  C108  1  0.816200  0.469600  0.209400  1.0  -0.1259
  C  C109  1  0.572800  0.810600  0.826400  1.0  -0.1598
  C  C110  1  0.917600  0.885000  0.037200  1.0  -0.18
  C  C111  1  0.578600  0.798700  0.961500  1.0  -0.1482
  C  C112  1  0.078600  0.038500  0.201300  1.0  -0.148
  C  C113  1  0.989000  0.889300  0.978700  1.0  0.2748
  C  C114  1  0.069800  0.004500  0.330100  1.0  0.7444
  C  C115  1  0.511000  0.978700  0.889300  1.0  0.2756
  C  C116  1  0.281400  0.158400  0.759200  1.0  0.7535
  C  C117  1  0.683800  0.209400  0.469600  1.0  -0.1271
  C  C118  1  0.077000  0.093400  0.155800  1.0  0.2787
  C  C119  1  0.366800  0.977700  0.852300  1.0  -0.1739
  C  C120  1  0.074600  0.063700  0.280900  1.0  -0.1378
  C  C121  1  0.718600  0.841600  0.240800  1.0  0.7613
  C  C122  1  0.218600  0.759200  0.158400  1.0  0.7484
  C  C123  1  0.421400  0.201300  0.038500  1.0  -0.1485
  C  C124  1  0.432500  0.267900  0.197300  1.0  0.3037
  C  C125  1  0.733700  0.189000  0.398000  1.0  -0.0476
  C  C126  1  0.567500  0.732100  0.802700  1.0  0.3036
  C  C127  1  0.206500  0.808900  0.035500  1.0  -0.0264
  C  C128  1  0.991600  0.842400  0.095400  1.0  -0.0495
  C  C129  1  0.927200  0.826400  0.810600  1.0  -0.1609
  C  C130  1  0.930200  0.995500  0.669900  1.0  0.7676
  C  C131  1  0.550800  0.258100  0.474100  1.0  -0.0236
  C  C132  1  0.864100  0.197000  0.904800  1.0  -0.174
  C  C133  1  0.277500  0.456900  0.813700  1.0  0.6831
  C  C134  1  0.793500  0.191100  0.964500  1.0  -0.0259
  O  O135  1  0.346100  0.725600  0.151800  1.0  -0.6946
  O  O136  1  0.341400  0.214470  0.756130  1.0  -0.7088
  O  O137  1  0.153900  0.151800  0.725600  1.0  -0.6923
  O  O138  1  0.896400  0.136550  0.541050  1.0  -0.7482
  O  O139  1  0.068900  0.276240  0.305760  1.0  -0.2633
  O  O140  1  0.762300  0.608290  0.218910  1.0  -0.5795
  O  O141  1  0.915600  0.936320  0.923680  1.0  -0.2559
  O  O142  1  0.396400  0.458950  0.863450  1.0  -0.7471
  O  O143  1  0.092100  0.932150  0.297450  1.0  -0.604
  O  O144  1  0.658600  0.785530  0.243870  1.0  -0.7074
  O  O145  1  0.431100  0.305760  0.276240  1.0  -0.262
  O  O146  1  0.158600  0.756130  0.214470  1.0  -0.7181
  O  O147  1  0.907900  0.067850  0.702550  1.0  -0.6042
  O  O148  1  0.584400  0.923680  0.936320  1.0  -0.2564
  O  O149  1  0.737700  0.218910  0.608290  1.0  -0.582
  O  O150  1  0.103600  0.863450  0.458950  1.0  -0.7474
  O  O151  1  0.262300  0.781090  0.391710  1.0  -0.5818
  O  O152  1  0.407900  0.297450  0.932150  1.0  -0.6019
  O  O153  1  0.952800  0.968160  0.600440  1.0  -0.6777
  O  O154  1  0.568900  0.694240  0.723760  1.0  -0.2608
  O  O155  1  0.084400  0.063680  0.076320  1.0  -0.2575
  O  O156  1  0.592100  0.702550  0.067850  1.0  -0.6027
  O  O157  1  0.237700  0.391710  0.781090  1.0  -0.5825
  O  O158  1  0.846100  0.848200  0.274400  1.0  -0.6899
  O  O159  1  0.547200  0.600440  0.968160  1.0  -0.6793
  O  O160  1  0.047200  0.031840  0.399560  1.0  -0.6768
  O  O161  1  0.653900  0.274400  0.848200  1.0  -0.6967
  O  O162  1  0.931100  0.723760  0.694240  1.0  -0.2639
  O  O163  1  0.415600  0.076320  0.063680  1.0  -0.2577
  O  O164  1  0.841400  0.243870  0.785530  1.0  -0.7217
  O  O165  1  0.452800  0.399560  0.031840  1.0  -0.6847
  O  O166  1  0.603600  0.541050  0.136550  1.0  -0.7471
