# generated using pymatgen
data_Mn3H22(C21O8)2
_symmetry_space_group_name_H-M   'P 1'
_cell_length_a   9.52370000
_cell_length_b   17.67270000
_cell_length_c   17.67270000
_cell_angle_alpha   103.47200000
_cell_angle_beta   103.79900000
_cell_angle_gamma   76.20080000
_symmetry_Int_Tables_number   1
_chemical_formula_structural   Mn3H22(C21O8)2
_chemical_formula_sum   'Mn6 H44 C84 O32'
_cell_volume   2755.93663215
_cell_formula_units_Z   2
loop_
 _symmetry_equiv_pos_site_id
 _symmetry_equiv_pos_as_xyz
  1  'x, y, z'
loop_
 _atom_site_type_symbol
 _atom_site_label
 _atom_site_symmetry_multiplicity
 _atom_site_fract_x
 _atom_site_fract_y
 _atom_site_fract_z
 _atom_site_occupancy
 _atom_site_charge
  Mn  Mn1  1  0.935780  0.677700  0.187260  1.0  1.1604
  Mn  Mn2  1  0.000000  0.500000  0.000000  1.0  1.1245
  Mn  Mn3  1  0.435780  0.812740  0.322300  1.0  1.1607
  Mn  Mn4  1  0.500000  0.000000  0.500000  1.0  1.1245
  Mn  Mn5  1  0.564220  0.187260  0.677700  1.0  1.1588
  Mn  Mn6  1  0.064220  0.322300  0.812740  1.0  1.1624
  H  H7  1  0.939300  0.339100  0.128700  1.0  0.1128
  H  H8  1  0.031000  0.979100  0.214500  1.0  0.1105
  H  H9  1  0.188100  0.217900  0.296900  1.0  0.1197
  H  H10  1  0.675200  0.891800  0.651800  1.0  0.0927
  H  H11  1  0.415800  0.682900  0.485500  1.0  0.1114
  H  H12  1  0.824800  0.651800  0.891800  1.0  0.0946
  H  H13  1  0.181800  0.352300  0.436100  1.0  0.1205
  H  H14  1  0.688100  0.703100  0.782100  1.0  0.1203
  H  H15  1  0.811900  0.782100  0.703100  1.0  0.1197
  H  H16  1  0.069400  0.708200  0.662000  1.0  0.1265
  H  H17  1  0.681800  0.563900  0.647700  1.0  0.1197
  H  H18  1  0.969000  0.020900  0.785500  1.0  0.1105
  H  H19  1  0.698400  0.719800  0.467400  1.0  0.1059
  H  H20  1  0.886100  0.090600  0.170000  1.0  0.1324
  H  H21  1  0.613900  0.170000  0.090600  1.0  0.1321
  H  H22  1  0.084200  0.485500  0.682900  1.0  0.111
  H  H23  1  0.386100  0.830000  0.909400  1.0  0.133
  H  H24  1  0.301600  0.280200  0.532600  1.0  0.1055
  H  H25  1  0.322300  0.466300  0.583500  1.0  0.1231
  H  H26  1  0.584200  0.317100  0.514500  1.0  0.1113
  H  H27  1  0.113900  0.909400  0.830000  1.0  0.1334
  H  H28  1  0.060700  0.660900  0.871300  1.0  0.1117
  H  H29  1  0.930600  0.291800  0.338000  1.0  0.1259
  H  H30  1  0.439300  0.871300  0.660900  1.0  0.1112
  H  H31  1  0.556300  0.632200  0.345800  1.0  0.0946
  H  H32  1  0.175200  0.348200  0.108200  1.0  0.0935
  H  H33  1  0.822300  0.416500  0.533700  1.0  0.1218
  H  H34  1  0.469000  0.214500  0.979100  1.0  0.1104
  H  H35  1  0.430600  0.662000  0.708200  1.0  0.1268
  H  H36  1  0.198400  0.532600  0.280200  1.0  0.1075
  H  H37  1  0.569400  0.338000  0.291800  1.0  0.127
  H  H38  1  0.443700  0.367800  0.654200  1.0  0.0952
  H  H39  1  0.311900  0.296900  0.217900  1.0  0.1202
  H  H40  1  0.560700  0.128700  0.339100  1.0  0.1115
  H  H41  1  0.318200  0.436100  0.352300  1.0  0.1197
  H  H42  1  0.677700  0.533700  0.416500  1.0  0.123
  H  H43  1  0.177700  0.583500  0.466300  1.0  0.1221
  H  H44  1  0.801600  0.467400  0.719800  1.0  0.1072
  H  H45  1  0.915800  0.514500  0.317100  1.0  0.1111
  H  H46  1  0.943700  0.345800  0.632200  1.0  0.0946
  H  H47  1  0.324800  0.108200  0.348200  1.0  0.0936
  H  H48  1  0.531000  0.785500  0.020900  1.0  0.1107
  H  H49  1  0.056300  0.654200  0.367800  1.0  0.0948
  H  H50  1  0.818200  0.647700  0.563900  1.0  0.1206
  C  C51  1  0.634000  0.524470  0.649730  1.0  -0.1858
  C  C52  1  0.418700  0.466080  0.610920  1.0  -0.2282
  C  C53  1  0.205900  0.308210  0.533390  1.0  0.0031
  C  C54  1  0.783200  0.736430  0.339970  1.0  0.7651
  C  C55  1  0.574900  0.341110  0.407490  1.0  0.2846
  C  C56  1  0.009100  0.610330  0.525070  1.0  0.2857
  C  C57  1  0.508300  0.592680  0.347320  1.0  -0.0218
  C  C58  1  0.713300  0.041930  0.686270  1.0  0.6771
  C  C59  1  0.475700  0.795210  0.906390  1.0  -0.229
  C  C60  1  0.070000  0.671950  0.692650  1.0  -0.2012
  C  C61  1  0.573800  0.166020  0.495380  1.0  0.7589
  C  C62  1  0.863700  0.692810  0.405790  1.0  -0.1743
  C  C63  1  0.716800  0.339970  0.736430  1.0  0.7727
  C  C64  1  0.425100  0.658890  0.592510  1.0  0.2852
  C  C65  1  0.024300  0.906390  0.795210  1.0  -0.2233
  C  C66  1  0.294100  0.533390  0.308210  1.0  0.0084
  C  C67  1  0.136300  0.307190  0.594210  1.0  -0.1754
  C  C68  1  0.574700  0.215180  0.435820  1.0  -0.142
  C  C69  1  0.434000  0.771440  0.696360  1.0  0.3045
  C  C70  1  0.990900  0.389670  0.474930  1.0  0.286
  C  C71  1  0.918700  0.389080  0.533920  1.0  -0.2258
  C  C72  1  0.930000  0.328050  0.307350  1.0  -0.2021
  C  C73  1  0.866000  0.649730  0.524470  1.0  -0.1851
  C  C74  1  0.490900  0.525070  0.610330  1.0  0.2882
  C  C75  1  0.925300  0.435820  0.215180  1.0  -0.1411
  C  C76  1  0.475900  0.229340  0.164260  1.0  0.3148
  C  C77  1  0.844600  0.829890  0.718310  1.0  -0.2605
  C  C78  1  0.566000  0.228560  0.303640  1.0  0.3025
  C  C79  1  0.636300  0.405790  0.692810  1.0  -0.1732
  C  C80  1  0.425300  0.784820  0.564180  1.0  -0.1436
  C  C81  1  0.933800  0.356730  0.181870  1.0  -0.1148
  C  C82  1  0.934000  0.303640  0.228560  1.0  0.3083
  C  C83  1  0.286700  0.958070  0.313730  1.0  0.6771
  C  C84  1  0.509100  0.474930  0.389670  1.0  0.2808
  C  C85  1  0.155400  0.170110  0.281690  1.0  -0.2604
  C  C86  1  0.524300  0.204790  0.093610  1.0  -0.2276
  C  C87  1  0.192800  0.031390  0.286810  1.0  -0.1368
  C  C88  1  0.066000  0.696360  0.771440  1.0  0.3001
  C  C89  1  0.008300  0.652680  0.407320  1.0  -0.0263
  C  C90  1  0.491700  0.407320  0.652680  1.0  -0.0206
  C  C91  1  0.975700  0.093610  0.204790  1.0  -0.2215
  C  C92  1  0.975900  0.835740  0.770660  1.0  0.3153
  C  C93  1  0.363700  0.594210  0.307190  1.0  -0.1751
  C  C94  1  0.581300  0.533920  0.389080  1.0  -0.2327
  C  C95  1  0.213300  0.313730  0.958070  1.0  0.6773
  C  C96  1  0.421200  0.705330  0.538870  1.0  -0.1502
  C  C97  1  0.566200  0.181870  0.356730  1.0  -0.12
  C  C98  1  0.762200  0.896060  0.688740  1.0  -0.0316
  C  C99  1  0.578800  0.294670  0.461130  1.0  -0.1509
  C  C100  1  0.073800  0.504620  0.833980  1.0  0.7612
  C  C101  1  0.283200  0.660030  0.263570  1.0  0.7675
  C  C102  1  0.307200  0.286810  0.031390  1.0  -0.1362
  C  C103  1  0.262200  0.311260  0.103940  1.0  -0.0297
  C  C104  1  0.074700  0.564180  0.784820  1.0  -0.1422
  C  C105  1  0.134000  0.350270  0.475530  1.0  -0.1856
  C  C106  1  0.024100  0.164260  0.229340  1.0  0.3165
  C  C107  1  0.926200  0.495380  0.166020  1.0  0.7615
  C  C108  1  0.216800  0.263570  0.660030  1.0  0.766
  C  C109  1  0.081300  0.610920  0.466080  1.0  -0.2288
  C  C110  1  0.344600  0.281690  0.170110  1.0  -0.26
  C  C111  1  0.426200  0.833980  0.504620  1.0  0.7573
  C  C112  1  0.807200  0.968610  0.713190  1.0  -0.1374
  C  C113  1  0.991700  0.347320  0.592680  1.0  -0.0254
  C  C114  1  0.570000  0.307350  0.328050  1.0  -0.2032
  C  C115  1  0.925100  0.407490  0.341110  1.0  0.2931
  C  C116  1  0.237800  0.103940  0.311260  1.0  -0.0284
  C  C117  1  0.655400  0.718310  0.829890  1.0  -0.258
  C  C118  1  0.074900  0.592510  0.658890  1.0  0.2935
  C  C119  1  0.938400  0.972550  0.767450  1.0  -0.0177
  C  C120  1  0.794100  0.691790  0.466610  1.0  0.0036
  C  C121  1  0.524100  0.770660  0.835740  1.0  0.316
  C  C122  1  0.061600  0.027450  0.232550  1.0  -0.0173
  C  C123  1  0.078800  0.538870  0.705330  1.0  -0.1488
  C  C124  1  0.737800  0.688740  0.896060  1.0  -0.0288
  C  C125  1  0.921200  0.461130  0.294670  1.0  -0.1483
  C  C126  1  0.430000  0.692650  0.671950  1.0  -0.2045
  C  C127  1  0.786700  0.686270  0.041930  1.0  0.6747
  C  C128  1  0.366000  0.475530  0.350270  1.0  -0.1855
  C  C129  1  0.705900  0.466610  0.691790  1.0  0.0069
  C  C130  1  0.438400  0.232550  0.027450  1.0  -0.0185
  C  C131  1  0.066200  0.643270  0.818130  1.0  -0.1174
  C  C132  1  0.561600  0.767450  0.972550  1.0  -0.0192
  C  C133  1  0.692800  0.713190  0.968610  1.0  -0.137
  C  C134  1  0.433800  0.818130  0.643270  1.0  -0.1182
  O  O135  1  0.411700  0.800200  0.433680  1.0  -0.6176
  O  O136  1  0.094700  0.364600  0.959540  1.0  -0.7248
  O  O137  1  0.405300  0.959540  0.364600  1.0  -0.7249
  O  O138  1  0.916500  0.436300  0.419360  1.0  -0.2507
  O  O139  1  0.439600  0.904450  0.531550  1.0  -0.6841
  O  O140  1  0.845300  0.344700  0.771580  1.0  -0.6822
  O  O141  1  0.743900  0.717780  0.106380  1.0  -0.5611
  O  O142  1  0.560400  0.095550  0.468450  1.0  -0.6808
  O  O143  1  0.435700  0.808390  0.775250  1.0  -0.2688
  O  O144  1  0.844700  0.738050  0.286030  1.0  -0.6942
  O  O145  1  0.416500  0.580640  0.563700  1.0  -0.2532
  O  O146  1  0.088300  0.433680  0.800200  1.0  -0.6186
  O  O147  1  0.154700  0.655300  0.228420  1.0  -0.6827
  O  O148  1  0.064300  0.775250  0.808390  1.0  -0.2731
  O  O149  1  0.243900  0.893620  0.282220  1.0  -0.5626
  O  O150  1  0.564300  0.191610  0.224750  1.0  -0.272
  O  O151  1  0.344700  0.713970  0.261950  1.0  -0.6831
  O  O152  1  0.756100  0.106380  0.717780  1.0  -0.5608
  O  O153  1  0.083500  0.563700  0.580640  1.0  -0.252
  O  O154  1  0.256100  0.282220  0.893620  1.0  -0.5624
  O  O155  1  0.935700  0.224750  0.191610  1.0  -0.2717
  O  O156  1  0.655300  0.286030  0.738050  1.0  -0.6817
  O  O157  1  0.911700  0.566320  0.199800  1.0  -0.6186
  O  O158  1  0.345300  0.228420  0.655300  1.0  -0.6856
  O  O159  1  0.905300  0.635400  0.040460  1.0  -0.7258
  O  O160  1  0.654700  0.771580  0.344700  1.0  -0.6859
  O  O161  1  0.060400  0.531550  0.904450  1.0  -0.6816
  O  O162  1  0.583500  0.419360  0.436300  1.0  -0.2526
  O  O163  1  0.594700  0.040460  0.635400  1.0  -0.7243
  O  O164  1  0.939600  0.468450  0.095550  1.0  -0.6828
  O  O165  1  0.588300  0.199800  0.566320  1.0  -0.6182
  O  O166  1  0.155300  0.261950  0.713970  1.0  -0.6907
