# generated using pymatgen
data_Mn3H22(C21O8)2
_symmetry_space_group_name_H-M   'P 1'
_cell_length_a   9.38650000
_cell_length_b   17.44690000
_cell_length_c   17.44690000
_cell_angle_alpha   104.36500000
_cell_angle_beta   102.82300000
_cell_angle_gamma   77.17680000
_symmetry_Int_Tables_number   1
_chemical_formula_structural   Mn3H22(C21O8)2
_chemical_formula_sum   'Mn6 H44 C84 O32'
_cell_volume   2656.38351135
_cell_formula_units_Z   2
loop_
 _symmetry_equiv_pos_site_id
 _symmetry_equiv_pos_as_xyz
  1  'x, y, z'
loop_
 _atom_site_type_symbol
 _atom_site_label
 _atom_site_symmetry_multiplicity
 _atom_site_fract_x
 _atom_site_fract_y
 _atom_site_fract_z
 _atom_site_occupancy
 _atom_site_charge
  Mn  Mn1  1  0.440670  0.681480  0.186780  1.0  1.1526
  Mn  Mn2  1  0.559330  0.318520  0.813220  1.0  1.1531
  Mn  Mn3  1  0.059330  0.186780  0.681480  1.0  1.1513
  Mn  Mn4  1  0.500000  0.500000  0.000000  1.0  1.1298
  Mn  Mn5  1  0.940670  0.813220  0.318520  1.0  1.151
  Mn  Mn6  1  0.000000  0.000000  0.500000  1.0  1.1298
  H  H7  1  0.320700  0.413900  0.535100  1.0  0.1141
  H  H8  1  0.015800  0.779200  0.023000  1.0  0.1088
  H  H9  1  0.174500  0.894200  0.660000  1.0  0.0976
  H  H10  1  0.426000  0.337600  0.124200  1.0  0.1207
  H  H11  1  0.064400  0.631600  0.340000  1.0  0.1002
  H  H12  1  0.189200  0.708600  0.785000  1.0  0.1155
  H  H13  1  0.429300  0.290100  0.338700  1.0  0.1358
  H  H14  1  0.870100  0.825200  0.912400  1.0  0.1414
  H  H15  1  0.629900  0.912400  0.825200  1.0  0.1428
  H  H16  1  0.129900  0.174800  0.087600  1.0  0.1419
  H  H17  1  0.699000  0.531300  0.274500  1.0  0.099
  H  H18  1  0.935600  0.368400  0.660000  1.0  0.1007
  H  H19  1  0.325500  0.660000  0.894200  1.0  0.0991
  H  H20  1  0.820700  0.464900  0.586100  1.0  0.1148
  H  H21  1  0.570700  0.709900  0.661300  1.0  0.1358
  H  H22  1  0.812300  0.434800  0.348000  1.0  0.1233
  H  H23  1  0.515800  0.977000  0.220800  1.0  0.1089
  H  H24  1  0.914900  0.680700  0.483900  1.0  0.1216
  H  H25  1  0.179300  0.535100  0.413900  1.0  0.1147
  H  H26  1  0.310800  0.785000  0.708600  1.0  0.115
  H  H27  1  0.187700  0.565200  0.652000  1.0  0.1233
  H  H28  1  0.301000  0.468700  0.725500  1.0  0.1003
  H  H29  1  0.370100  0.087600  0.174800  1.0  0.1429
  H  H30  1  0.074000  0.124200  0.337600  1.0  0.1185
  H  H31  1  0.689200  0.215000  0.291400  1.0  0.1146
  H  H32  1  0.825500  0.105800  0.340000  1.0  0.0982
  H  H33  1  0.687700  0.348000  0.434800  1.0  0.1244
  H  H34  1  0.585100  0.483900  0.680700  1.0  0.1218
  H  H35  1  0.564400  0.660000  0.368400  1.0  0.1008
  H  H36  1  0.085100  0.319300  0.516100  1.0  0.1217
  H  H37  1  0.926000  0.875800  0.662400  1.0  0.1187
  H  H38  1  0.414900  0.516100  0.319300  1.0  0.122
  H  H39  1  0.674500  0.340000  0.105800  1.0  0.099
  H  H40  1  0.435600  0.340000  0.631600  1.0  0.1013
  H  H41  1  0.484200  0.023000  0.779200  1.0  0.109
  H  H42  1  0.984200  0.220800  0.977000  1.0  0.1087
  H  H43  1  0.801000  0.274500  0.531300  1.0  0.0987
  H  H44  1  0.929300  0.661300  0.709900  1.0  0.1371
  H  H45  1  0.574000  0.662400  0.875800  1.0  0.1192
  H  H46  1  0.199000  0.725500  0.468700  1.0  0.0986
  H  H47  1  0.810800  0.291400  0.215000  1.0  0.115
  H  H48  1  0.070700  0.338700  0.290100  1.0  0.1365
  H  H49  1  0.679300  0.586100  0.464900  1.0  0.1142
  H  H50  1  0.312300  0.652000  0.565200  1.0  0.1238
  C  C51  1  0.720100  0.310820  0.954980  1.0  0.6822
  C  C52  1  0.449700  0.974540  0.764860  1.0  -0.0107
  C  C53  1  0.079200  0.165500  0.496300  1.0  0.719
  C  C54  1  0.654300  0.166500  0.276700  1.0  -0.1893
  C  C55  1  0.369500  0.698680  0.407940  1.0  -0.1695
  C  C56  1  0.279900  0.689180  0.045020  1.0  0.6846
  C  C57  1  0.933300  0.774110  0.698890  1.0  0.2795
  C  C58  1  0.036500  0.206210  0.090790  1.0  -0.1915
  C  C59  1  0.708100  0.256060  0.656740  1.0  0.7502
  C  C60  1  0.993100  0.524360  0.612160  1.0  0.2483
  C  C61  1  0.578700  0.564040  0.785680  1.0  -0.1295
  C  C62  1  0.186500  0.715290  0.970230  1.0  -0.1292
  C  C63  1  0.429500  0.326290  0.307510  1.0  -0.2118
  C  C64  1  0.073900  0.340690  0.406710  1.0  0.2899
  C  C65  1  0.920800  0.834500  0.503700  1.0  0.7335
  C  C66  1  0.513800  0.657820  0.407800  1.0  -0.0417
  C  C67  1  0.073300  0.179130  0.355170  1.0  -0.1636
  C  C68  1  0.506900  0.612160  0.524360  1.0  0.245
  C  C69  1  0.963500  0.793790  0.909210  1.0  -0.1938
  C  C70  1  0.791900  0.656740  0.256060  1.0  0.7532
  C  C71  1  0.154300  0.723300  0.833500  1.0  -0.1894
  C  C72  1  0.204900  0.467840  0.697000  1.0  -0.0083
  C  C73  1  0.869500  0.592060  0.301320  1.0  -0.1722
  C  C74  1  0.862600  0.474520  0.346280  1.0  -0.2308
  C  C75  1  0.345700  0.833500  0.723300  1.0  -0.1907
  C  C76  1  0.573300  0.644830  0.820870  1.0  -0.1536
  C  C77  1  0.006900  0.475640  0.387840  1.0  0.246
  C  C78  1  0.493100  0.387840  0.475640  1.0  0.245
  C  C79  1  0.070500  0.307510  0.326290  1.0  -0.2123
  C  C80  1  0.582700  0.614090  0.465430  1.0  -0.1966
  C  C81  1  0.917300  0.465430  0.614090  1.0  -0.1964
  C  C82  1  0.264700  0.898580  0.694420  1.0  -0.0364
  C  C83  1  0.078700  0.214320  0.435960  1.0  -0.1312
  C  C84  1  0.813500  0.284710  0.029770  1.0  -0.1311
  C  C85  1  0.986200  0.407800  0.657820  1.0  -0.0357
  C  C86  1  0.130500  0.407940  0.698680  1.0  -0.1722
  C  C87  1  0.630500  0.301320  0.592060  1.0  -0.1708
  C  C88  1  0.463500  0.090790  0.206210  1.0  -0.1932
  C  C89  1  0.486200  0.342180  0.592200  1.0  -0.0424
  C  C90  1  0.420800  0.496300  0.165500  1.0  0.7201
  C  C91  1  0.295100  0.697000  0.467840  1.0  -0.0129
  C  C92  1  0.419900  0.461800  0.295400  1.0  -0.1777
  C  C93  1  0.637400  0.346280  0.474520  1.0  -0.2306
  C  C94  1  0.417300  0.385910  0.534570  1.0  -0.1962
  C  C95  1  0.929500  0.692490  0.673710  1.0  -0.2138
  C  C96  1  0.573900  0.593290  0.659310  1.0  0.2897
  C  C97  1  0.845700  0.276700  0.166500  1.0  -0.1896
  C  C98  1  0.921300  0.785680  0.564040  1.0  -0.1343
  C  C99  1  0.313500  0.970230  0.715290  1.0  -0.1349
  C  C100  1  0.421300  0.435960  0.214320  1.0  -0.1297
  C  C101  1  0.013800  0.592200  0.342180  1.0  -0.0366
  C  C102  1  0.795100  0.532160  0.303000  1.0  -0.009
  C  C103  1  0.764700  0.305580  0.101420  1.0  -0.0364
  C  C104  1  0.519900  0.160370  0.225430  1.0  0.3341
  C  C105  1  0.050300  0.764860  0.974540  1.0  -0.0129
  C  C106  1  0.570500  0.673710  0.692490  1.0  -0.21
  C  C107  1  0.550300  0.025460  0.235140  1.0  -0.0117
  C  C108  1  0.926100  0.659310  0.593290  1.0  0.2906
  C  C109  1  0.433300  0.301110  0.225890  1.0  0.2756
  C  C110  1  0.291900  0.743940  0.343260  1.0  0.7504
  C  C111  1  0.704900  0.303000  0.532160  1.0  -0.0132
  C  C112  1  0.735300  0.101420  0.305580  1.0  -0.0384
  C  C113  1  0.066700  0.225890  0.301110  1.0  0.2798
  C  C114  1  0.426700  0.355170  0.179130  1.0  -0.1511
  C  C115  1  0.137400  0.525480  0.653720  1.0  -0.2279
  C  C116  1  0.926700  0.820870  0.644830  1.0  -0.1608
  C  C117  1  0.579200  0.503700  0.834500  1.0  0.7209
  C  C118  1  0.220100  0.045020  0.689180  1.0  0.6806
  C  C119  1  0.426100  0.406710  0.340690  1.0  0.2894
  C  C120  1  0.919900  0.704600  0.538200  1.0  -0.1768
  C  C121  1  0.980100  0.225430  0.160370  1.0  0.3217
  C  C122  1  0.686500  0.029770  0.284710  1.0  -0.1347
  C  C123  1  0.580100  0.538200  0.704600  1.0  -0.1775
  C  C124  1  0.949700  0.235140  0.025460  1.0  -0.0126
  C  C125  1  0.480100  0.839630  0.774570  1.0  0.3348
  C  C126  1  0.019900  0.774570  0.839630  1.0  0.3323
  C  C127  1  0.779900  0.954980  0.310820  1.0  0.6814
  C  C128  1  0.536500  0.909210  0.793790  1.0  -0.1956
  C  C129  1  0.080100  0.295400  0.461800  1.0  -0.1761
  C  C130  1  0.362600  0.653720  0.525480  1.0  -0.2309
  C  C131  1  0.566700  0.698890  0.774110  1.0  0.2781
  C  C132  1  0.235300  0.694420  0.898580  1.0  -0.0371
  C  C133  1  0.082700  0.534570  0.385910  1.0  -0.1977
  C  C134  1  0.208100  0.343260  0.743940  1.0  0.7584
  O  O135  1  0.931800  0.907390  0.531790  1.0  -0.6655
  O  O136  1  0.143200  0.289560  0.745340  1.0  -0.6628
  O  O137  1  0.909400  0.800120  0.431580  1.0  -0.6158
  O  O138  1  0.766600  0.281480  0.889420  1.0  -0.5715
  O  O139  1  0.409400  0.568420  0.199880  1.0  -0.6161
  O  O140  1  0.337200  0.349650  0.781710  1.0  -0.6801
  O  O141  1  0.932600  0.812070  0.778770  1.0  -0.2591
  O  O142  1  0.420400  0.436650  0.421530  1.0  -0.2502
  O  O143  1  0.162800  0.781710  0.349650  1.0  -0.6929
  O  O144  1  0.431800  0.468210  0.092610  1.0  -0.6632
  O  O145  1  0.662800  0.650350  0.218290  1.0  -0.6821
  O  O146  1  0.568200  0.531790  0.907390  1.0  -0.6627
  O  O147  1  0.904000  0.957820  0.357780  1.0  -0.6941
  O  O148  1  0.096000  0.042180  0.642220  1.0  -0.6923
  O  O149  1  0.920400  0.578470  0.563350  1.0  -0.2522
  O  O150  1  0.733400  0.889420  0.281480  1.0  -0.5693
  O  O151  1  0.067400  0.187930  0.221230  1.0  -0.2567
  O  O152  1  0.567400  0.778770  0.812070  1.0  -0.2602
  O  O153  1  0.579600  0.563350  0.578470  1.0  -0.2516
  O  O154  1  0.356800  0.745340  0.289560  1.0  -0.6804
  O  O155  1  0.596000  0.357780  0.957820  1.0  -0.6916
  O  O156  1  0.068200  0.092610  0.468210  1.0  -0.6648
  O  O157  1  0.079600  0.421530  0.436650  1.0  -0.2514
  O  O158  1  0.432600  0.221230  0.187930  1.0  -0.2601
  O  O159  1  0.090600  0.199880  0.568420  1.0  -0.6165
  O  O160  1  0.404000  0.642220  0.042180  1.0  -0.6941
  O  O161  1  0.590600  0.431580  0.800120  1.0  -0.6168
  O  O162  1  0.856800  0.710440  0.254660  1.0  -0.6679
  O  O163  1  0.266600  0.110580  0.718520  1.0  -0.5693
  O  O164  1  0.643200  0.254660  0.710440  1.0  -0.6726
  O  O165  1  0.233400  0.718520  0.110580  1.0  -0.5692
  O  O166  1  0.837200  0.218290  0.650350  1.0  -0.6885
