# generated using pymatgen
data_Mn5H44(C21O8)4
_symmetry_space_group_name_H-M   'P 1'
_cell_length_a   13.10200000
_cell_length_b   13.13400000
_cell_length_c   25.33600000
_cell_angle_alpha   93.93500000
_cell_angle_beta   90.00000000
_cell_angle_gamma   90.00000000
_symmetry_Int_Tables_number   1
_chemical_formula_structural   Mn5H44(C21O8)4
_chemical_formula_sum   'Mn10 H88 C168 O64'
_cell_volume   4349.58296189
_cell_formula_units_Z   2
loop_
 _symmetry_equiv_pos_site_id
 _symmetry_equiv_pos_as_xyz
  1  'x, y, z'
loop_
 _atom_site_type_symbol
 _atom_site_label
 _atom_site_symmetry_multiplicity
 _atom_site_fract_x
 _atom_site_fract_y
 _atom_site_fract_z
 _atom_site_occupancy
 _atom_site_charge
  Mn  Mn1  1  0.052820  0.761490  0.484830  1.0  1.1267
  Mn  Mn2  1  0.552820  0.738510  0.015170  1.0  1.127
  Mn  Mn3  1  0.306160  0.471320  0.998330  1.0  1.1114
  Mn  Mn4  1  0.500000  0.000000  0.000000  1.0  1.2295
  Mn  Mn5  1  0.193840  0.971320  0.498330  1.0  1.1112
  Mn  Mn6  1  0.693840  0.528680  0.001670  1.0  1.111
  Mn  Mn7  1  0.806160  0.028680  0.501670  1.0  1.1129
  Mn  Mn8  1  0.947180  0.238510  0.515170  1.0  1.128
  Mn  Mn9  1  0.000000  0.500000  0.500000  1.0  1.231
  Mn  Mn10  1  0.447180  0.261490  0.984830  1.0  1.1277
  H  H11  1  0.891800  0.039300  0.347200  1.0  0.1236
  H  H12  1  0.648600  0.700100  0.880000  1.0  0.1018
  H  H13  1  0.615600  0.331100  0.152700  1.0  0.1332
  H  H14  1  0.839300  0.444600  0.143100  1.0  0.131
  H  H15  1  0.861700  0.149500  0.167900  1.0  0.1356
  H  H16  1  0.468200  0.183100  0.745900  1.0  0.1206
  H  H17  1  0.743700  0.590600  0.595500  1.0  0.1079
  H  H18  1  0.666667  0.735800  0.790200  1.0  0.1344
  H  H19  1  0.309700  0.996500  0.142500  1.0  0.1045
  H  H20  1  0.814900  0.808800  0.378700  1.0  0.1008
  H  H21  1  0.834800  0.873400  0.228600  1.0  0.1216
  H  H22  1  0.940700  0.866100  0.825300  1.0  0.1088
  H  H23  1  0.148600  0.799900  0.620000  1.0  0.1019
  H  H24  1  0.361700  0.350500  0.332100  1.0  0.1372
  H  H25  1  0.138300  0.850500  0.832100  1.0  0.1372
  H  H26  1  0.256300  0.409400  0.404500  1.0  0.1083
  H  H27  1  0.833300  0.235800  0.290200  1.0  0.1346
  H  H28  1  0.732100  0.819500  0.157400  1.0  0.0932
  H  H29  1  0.031800  0.683100  0.245900  1.0  0.121
  H  H30  1  0.608200  0.539300  0.847200  1.0  0.1232
  H  H31  1  0.514400  0.947700  0.874100  1.0  0.1235
  H  H32  1  0.160700  0.555400  0.856900  1.0  0.1312
  H  H33  1  0.531800  0.816900  0.254100  1.0  0.1216
  H  H34  1  0.638300  0.649500  0.667900  1.0  0.1353
  H  H35  1  0.462500  0.770200  0.333600  1.0  0.109
  H  H36  1  0.267900  0.180500  0.842600  1.0  0.0934
  H  H37  1  0.418400  0.664400  0.584400  1.0  0.1256
  H  H38  1  0.048900  0.933300  0.218600  1.0  0.1291
  H  H39  1  0.914800  0.402000  0.222100  1.0  0.1108
  H  H40  1  0.617400  0.132800  0.269200  1.0  0.1244
  H  H41  1  0.384400  0.668900  0.847300  1.0  0.1332
  H  H42  1  0.190300  0.496500  0.642500  1.0  0.1046
  H  H43  1  0.756300  0.090600  0.095500  1.0  0.1092
  H  H44  1  0.221600  0.678900  0.198700  1.0  0.1315
  H  H45  1  0.690300  0.003500  0.857500  1.0  0.105
  H  H46  1  0.314900  0.691200  0.121300  1.0  0.0993
  H  H47  1  0.081600  0.164400  0.084400  1.0  0.1253
  H  H48  1  0.243700  0.909400  0.904500  1.0  0.109
  H  H49  1  0.333333  0.264200  0.209800  1.0  0.135
  H  H50  1  0.485600  0.052300  0.125900  1.0  0.1235
  H  H51  1  0.721600  0.821100  0.301300  1.0  0.1334
  H  H52  1  0.767900  0.319500  0.657400  1.0  0.0932
  H  H53  1  0.166700  0.764200  0.709800  1.0  0.1348
  H  H54  1  0.115600  0.168900  0.347300  1.0  0.1328
  H  H55  1  0.232100  0.680500  0.342600  1.0  0.0935
  H  H56  1  0.117400  0.367200  0.230800  1.0  0.1248
  H  H57  1  0.778400  0.321100  0.801300  1.0  0.1333
  H  H58  1  0.882600  0.632800  0.769200  1.0  0.1245
  H  H59  1  0.351400  0.299900  0.120000  1.0  0.1009
  H  H60  1  0.165200  0.126600  0.771400  1.0  0.1212
  H  H61  1  0.851400  0.200100  0.380000  1.0  0.1013
  H  H62  1  0.014400  0.552300  0.625900  1.0  0.1249
  H  H63  1  0.918400  0.835600  0.915600  1.0  0.1257
  H  H64  1  0.660700  0.944600  0.643100  1.0  0.1309
  H  H65  1  0.968200  0.316900  0.754100  1.0  0.1214
  H  H66  1  0.108200  0.960700  0.652800  1.0  0.1231
  H  H67  1  0.537500  0.229800  0.666400  1.0  0.1086
  H  H68  1  0.985600  0.447700  0.374100  1.0  0.1247
  H  H69  1  0.665200  0.373400  0.728600  1.0  0.1216
  H  H70  1  0.334800  0.626600  0.271400  1.0  0.121
  H  H71  1  0.629900  0.650900  0.136100  1.0  0.1281
  H  H72  1  0.370100  0.349100  0.863900  1.0  0.1288
  H  H73  1  0.129900  0.849100  0.363900  1.0  0.1287
  H  H74  1  0.185100  0.191200  0.621300  1.0  0.1001
  H  H75  1  0.809700  0.503500  0.357500  1.0  0.105
  H  H76  1  0.339300  0.055400  0.356900  1.0  0.1312
  H  H77  1  0.451100  0.433300  0.718600  1.0  0.1292
  H  H78  1  0.229400  0.983200  0.224200  1.0  0.1146
  H  H79  1  0.382600  0.867200  0.730800  1.0  0.125
  H  H80  1  0.581600  0.335600  0.415600  1.0  0.1258
  H  H81  1  0.729400  0.516800  0.275800  1.0  0.1143
  H  H82  1  0.440700  0.633900  0.674700  1.0  0.1087
  H  H83  1  0.085200  0.598000  0.777900  1.0  0.111
  H  H84  1  0.548900  0.566700  0.281400  1.0  0.1287
  H  H85  1  0.585200  0.902000  0.722100  1.0  0.111
  H  H86  1  0.278400  0.178900  0.698700  1.0  0.1324
  H  H87  1  0.270600  0.483200  0.724200  1.0  0.1145
  H  H88  1  0.685100  0.308800  0.878700  1.0  0.1001
  H  H89  1  0.962500  0.729800  0.166400  1.0  0.1085
  H  H90  1  0.870100  0.150900  0.636100  1.0  0.1281
  H  H91  1  0.059300  0.133900  0.174700  1.0  0.1084
  H  H92  1  0.037500  0.270200  0.833600  1.0  0.109
  H  H93  1  0.559300  0.366100  0.325300  1.0  0.1082
  H  H94  1  0.391800  0.460700  0.152800  1.0  0.1233
  H  H95  1  0.884400  0.831100  0.652700  1.0  0.1334
  H  H96  1  0.414800  0.098000  0.277900  1.0  0.111
  H  H97  1  0.770600  0.016800  0.775800  1.0  0.1142
  H  H98  1  0.951100  0.066700  0.781400  1.0  0.1288
  C  C99  1  0.482000  0.962000  0.260760  1.0  0.3195
  C  C100  1  0.351100  0.856100  0.406110  1.0  0.4698
  C  C101  1  0.665700  0.584000  0.665970  1.0  -0.1691
  C  C102  1  0.242000  0.114400  0.840400  1.0  0.0016
  C  C103  1  0.494700  0.864000  0.275430  1.0  -0.2169
  C  C104  1  0.923600  0.466900  0.210310  1.0  -0.1635
  C  C105  1  0.608500  0.094600  0.646510  1.0  -0.1184
  C  C106  1  0.228100  0.952400  0.877940  1.0  -0.0044
  C  C107  1  0.951300  0.578000  0.700550  1.0  0.2242
  C  C108  1  0.235100  0.550200  0.380720  1.0  -0.1011
  C  C109  1  0.548500  0.164600  0.677380  1.0  -0.0235
  C  C110  1  0.587900  0.613800  0.157360  1.0  -0.1169
  C  C111  1  0.797100  0.749700  0.358520  1.0  0.0264
  C  C112  1  0.981900  0.719100  0.578210  1.0  0.6748
  C  C113  1  0.518000  0.038000  0.739240  1.0  0.3181
  C  C114  1  0.048700  0.422000  0.299450  1.0  0.2146
  C  C115  1  0.988700  0.054100  0.635890  1.0  -0.1377
  C  C116  1  0.742000  0.385600  0.659600  1.0  0.0003
  C  C117  1  0.124900  0.257200  0.283710  1.0  0.2372
  C  C118  1  0.217500  0.747400  0.685090  1.0  -0.1749
  C  C119  1  0.147200  0.983100  0.793880  1.0  0.2697
  C  C120  1  0.824400  0.657400  0.375640  1.0  -0.1053
  C  C121  1  0.048500  0.335400  0.822620  1.0  -0.0256
  C  C122  1  0.122200  0.507600  0.836720  1.0  -0.0572
  C  C123  1  0.165700  0.916000  0.834030  1.0  -0.1706
  C  C124  1  0.616900  0.332200  0.336430  1.0  -0.186
  C  C125  1  0.963600  0.998100  0.279030  1.0  0.277
  C  C126  1  0.451500  0.835400  0.322620  1.0  -0.0252
  C  C127  1  0.318300  0.582300  0.297260  1.0  -0.1862
  C  C128  1  0.222800  0.830000  0.218790  1.0  0.3222
  C  C129  1  0.690500  0.298400  0.300680  1.0  0.2501
  C  C130  1  0.282500  0.247400  0.185090  1.0  -0.1743
  C  C131  1  0.630300  0.314500  0.390500  1.0  -0.057
  C  C132  1  0.835200  0.408500  0.575220  1.0  0.6656
  C  C133  1  0.777200  0.170000  0.781210  1.0  0.3232
  C  C134  1  0.600200  0.148400  0.235070  1.0  -0.1095
  C  C135  1  0.722800  0.670000  0.281210  1.0  0.3235
  C  C136  1  0.869700  0.814500  0.890500  1.0  -0.0569
  C  C137  1  0.054200  0.998600  0.667700  1.0  -0.1191
  C  C138  1  0.101700  0.882300  0.287080  1.0  0.2683
  C  C139  1  0.087900  0.886200  0.342640  1.0  -0.1159
  C  C140  1  0.005300  0.364000  0.775430  1.0  -0.2159
  C  C141  1  0.615100  0.150300  0.924980  1.0  0.7145
  C  C142  1  0.297100  0.750300  0.141480  1.0  0.0266
  C  C143  1  0.624900  0.242800  0.216290  1.0  0.2441
  C  C144  1  0.753800  0.075100  0.796980  1.0  -0.2184
  C  C145  1  0.898300  0.117700  0.712920  1.0  0.2681
  C  C146  1  0.771900  0.047600  0.122060  1.0  -0.0043
  C  C147  1  0.490700  0.552500  0.076880  1.0  0.6888
  C  C148  1  0.505300  0.136000  0.724570  1.0  -0.2156
  C  C149  1  0.383100  0.667800  0.663570  1.0  -0.1845
  C  C150  1  0.021000  0.400900  0.351770  1.0  -0.1235
  C  C151  1  0.648900  0.143900  0.593890  1.0  0.4698
  C  C152  1  0.782500  0.252600  0.314910  1.0  -0.176
  C  C153  1  0.884900  0.650300  0.424980  1.0  0.7148
  C  C154  1  0.758000  0.885600  0.159600  1.0  -0.0007
  C  C155  1  0.675600  0.157400  0.875640  1.0  -0.1049
  C  C156  1  0.218800  0.235700  0.095070  1.0  -0.1007
  C  C157  1  0.979000  0.599100  0.648230  1.0  -0.1245
  C  C158  1  0.795700  0.567200  0.345350  1.0  -0.0603
  C  C159  1  0.706400  0.733500  0.868770  1.0  -0.061
  C  C160  1  0.622200  0.992400  0.663280  1.0  -0.0593
  C  C161  1  0.550200  0.194400  0.132440  1.0  -0.1268
  C  C162  1  0.725500  0.240800  0.463880  1.0  0.6749
  C  C163  1  0.702900  0.249700  0.858520  1.0  0.0261
  C  C164  1  0.050200  0.305600  0.367560  1.0  -0.1256
  C  C165  1  0.398300  0.382300  0.787080  1.0  0.2683
  C  C166  1  0.352800  0.483100  0.293880  1.0  0.2759
  C  C167  1  0.130300  0.185500  0.109500  1.0  -0.0561
  C  C168  1  0.509300  0.447500  0.923120  1.0  0.6871
  C  C169  1  0.599500  0.267600  0.164620  1.0  -0.1168
  C  C170  1  0.281200  0.735700  0.595070  1.0  -0.1003
  C  C171  1  0.116900  0.167800  0.163570  1.0  -0.1843
  C  C172  1  0.243100  0.742000  0.188380  1.0  -0.2339
  C  C173  1  0.521000  0.099100  0.148230  1.0  -0.1238
  C  C174  1  0.664800  0.908500  0.075220  1.0  0.6663
  C  C175  1  0.175600  0.342600  0.624360  1.0  -0.1049
  C  C176  1  0.148900  0.356100  0.906110  1.0  0.4682
  C  C177  1  0.479000  0.900900  0.851770  1.0  -0.1233
  C  C178  1  0.295700  0.932800  0.154650  1.0  -0.0607
  C  C179  1  0.369700  0.685500  0.609500  1.0  -0.0569
  C  C180  1  0.225500  0.259200  0.036120  1.0  0.6759
  C  C181  1  0.039800  0.937100  0.255090  1.0  -0.1822
  C  C182  1  0.877800  0.492400  0.163280  1.0  -0.0581
  C  C183  1  0.423600  0.033100  0.289690  1.0  -0.1636
  C  C184  1  0.202900  0.250300  0.641480  1.0  0.0256
  C  C185  1  0.274500  0.759200  0.536120  1.0  0.6759
  C  C186  1  0.746200  0.575100  0.296980  1.0  -0.2214
  C  C187  1  0.735100  0.949800  0.119280  1.0  -0.102
  C  C188  1  0.399800  0.851600  0.764930  1.0  -0.11
  C  C189  1  0.335200  0.091500  0.924780  1.0  0.6649
  C  C190  1  0.463600  0.501900  0.220970  1.0  0.2774
  C  C191  1  0.253800  0.424900  0.703020  1.0  -0.2185
  C  C192  1  0.809500  0.798400  0.800680  1.0  0.2506
  C  C193  1  0.256900  0.242000  0.688380  1.0  -0.2351
  C  C194  1  0.899800  0.648400  0.735070  1.0  -0.1105
  C  C195  1  0.108500  0.405400  0.853490  1.0  -0.1208
  C  C196  1  0.818300  0.917700  0.202740  1.0  -0.1876
  C  C197  1  0.518100  0.219100  0.078210  1.0  0.675
  C  C198  1  0.891500  0.594600  0.146510  1.0  -0.1173
  C  C199  1  0.511300  0.554100  0.135890  1.0  -0.1374
  C  C200  1  0.960200  0.062900  0.744910  1.0  -0.1844
  C  C201  1  0.391500  0.905400  0.353490  1.0  -0.1189
  C  C202  1  0.704300  0.067200  0.845350  1.0  -0.0591
  C  C203  1  0.949800  0.694400  0.632440  1.0  -0.1263
  C  C204  1  0.576400  0.966900  0.710310  1.0  -0.1654
  C  C205  1  0.548700  0.078000  0.200550  1.0  0.2151
  C  C206  1  0.100200  0.351600  0.264930  1.0  -0.1098
  C  C207  1  0.400500  0.732400  0.835380  1.0  -0.1148
  C  C208  1  0.334300  0.416000  0.334030  1.0  -0.1704
  C  C209  1  0.774500  0.740800  0.963880  1.0  0.6759
  C  C210  1  0.384900  0.849700  0.075020  1.0  0.7129
  C  C211  1  0.982000  0.538000  0.239240  1.0  0.318
  C  C212  1  0.115100  0.349700  0.575020  1.0  0.7136
  C  C213  1  0.743100  0.758000  0.311620  1.0  -0.2361
  C  C214  1  0.309500  0.701600  0.699320  1.0  0.2513
  C  C215  1  0.764900  0.449800  0.619280  1.0  -0.1011
  C  C216  1  0.377800  0.007600  0.336720  1.0  -0.0585
  C  C217  1  0.277200  0.330000  0.718790  1.0  0.3228
  C  C218  1  0.756900  0.258000  0.811620  1.0  -0.2344
  C  C219  1  0.647200  0.516900  0.706120  1.0  0.2762
  C  C220  1  0.204300  0.432800  0.654650  1.0  -0.0588
  C  C221  1  0.488700  0.445900  0.864110  1.0  -0.1366
  C  C222  1  0.681700  0.417700  0.702740  1.0  -0.1881
  C  C223  1  0.990700  0.947500  0.423120  1.0  0.6874
  C  C224  1  0.912100  0.113800  0.657360  1.0  -0.1162
  C  C225  1  0.412100  0.386200  0.842640  1.0  -0.1154
  C  C226  1  0.258000  0.614400  0.340400  1.0  0.0003
  C  C227  1  0.554200  0.501400  0.832300  1.0  -0.117
  C  C228  1  0.536400  0.498100  0.779030  1.0  0.2771
  C  C229  1  0.875100  0.742800  0.716290  1.0  0.238
  C  C230  1  0.728100  0.547600  0.622060  1.0  -0.0043
  C  C231  1  0.181700  0.082300  0.797260  1.0  -0.1868
  C  C232  1  0.851100  0.643900  0.093890  1.0  0.4687
  C  C233  1  0.717500  0.752600  0.814910  1.0  -0.1742
  C  C234  1  0.264900  0.050200  0.880720  1.0  -0.1007
  C  C235  1  0.834300  0.084000  0.165970  1.0  -0.1713
  C  C236  1  0.883100  0.832200  0.836430  1.0  -0.1871
  C  C237  1  0.246200  0.924900  0.203020  1.0  -0.2215
  C  C238  1  0.793600  0.233500  0.368770  1.0  -0.0622
  C  C239  1  0.036400  0.001900  0.720970  1.0  0.2778
  C  C240  1  0.449800  0.805600  0.867560  1.0  -0.1244
  C  C241  1  0.375100  0.757200  0.783710  1.0  0.2433
  C  C242  1  0.324400  0.842600  0.124360  1.0  -0.1038
  C  C243  1  0.718800  0.264300  0.404930  1.0  -0.0995
  C  C244  1  0.018000  0.462000  0.760760  1.0  0.3201
  C  C245  1  0.994700  0.636000  0.224570  1.0  -0.2174
  C  C246  1  0.011300  0.945900  0.364110  1.0  -0.1363
  C  C247  1  0.481900  0.780900  0.921790  1.0  0.6744
  C  C248  1  0.539800  0.562900  0.244910  1.0  -0.1837
  C  C249  1  0.852800  0.016900  0.206120  1.0  0.2695
  C  C250  1  0.781200  0.764300  0.904930  1.0  -0.1008
  C  C251  1  0.951500  0.664600  0.177380  1.0  -0.0249
  C  C252  1  0.190500  0.201600  0.199320  1.0  0.2507
  C  C253  1  0.601700  0.617700  0.212920  1.0  0.268
  C  C254  1  0.099500  0.232400  0.335380  1.0  -0.1149
  C  C255  1  0.460200  0.437100  0.755090  1.0  -0.1825
  C  C256  1  0.451300  0.922000  0.799450  1.0  0.2239
  C  C257  1  0.945800  0.001400  0.332300  1.0  -0.1167
  C  C258  1  0.076400  0.533100  0.789690  1.0  -0.1682
  C  C259  1  0.009300  0.052500  0.576880  1.0  0.6874
  C  C260  1  0.445800  0.498600  0.167700  1.0  -0.1186
  C  C261  1  0.164800  0.591500  0.424780  1.0  0.6663
  C  C262  1  0.900500  0.767600  0.664620  1.0  -0.1159
  C  C263  1  0.018100  0.280900  0.421790  1.0  0.6756
  C  C264  1  0.293600  0.266500  0.131230  1.0  -0.0628
  C  C265  1  0.271900  0.452400  0.377940  1.0  -0.0042
  C  C266  1  0.206400  0.766500  0.631230  1.0  -0.0621
  O  O267  1  0.408400  0.764500  0.050090  1.0  -0.6088
  O  O268  1  0.059600  0.911880  0.452110  1.0  -0.6489
  O  O269  1  0.678800  0.315800  0.246460  1.0  -0.2585
  O  O270  1  0.633870  0.819580  0.074040  1.0  -0.5675
  O  O271  1  0.410400  0.934800  0.059920  1.0  -0.6034
  O  O272  1  0.470500  0.691750  0.936310  1.0  -0.5662
  O  O273  1  0.131800  0.282800  0.916050  1.0  -0.4407
  O  O274  1  0.140400  0.523600  0.458180  1.0  -0.6199
  O  O275  1  0.970500  0.808250  0.563690  1.0  -0.5648
  O  O276  1  0.661600  0.274300  0.494370  1.0  -0.4855
  O  O277  1  0.868200  0.717200  0.083950  1.0  -0.4429
  O  O278  1  0.694900  0.685370  0.974650  1.0  -0.6721
  O  O279  1  0.440400  0.411880  0.952110  1.0  -0.6495
  O  O280  1  0.095200  0.020000  0.561880  1.0  -0.6614
  O  O281  1  0.178800  0.184200  0.253540  1.0  -0.2587
  O  O282  1  0.805100  0.185370  0.474650  1.0  -0.6711
  O  O283  1  0.908100  0.061200  0.248630  1.0  -0.2464
  O  O284  1  0.978900  0.350550  0.453760  1.0  -0.6713
  O  O285  1  0.366130  0.180420  0.925960  1.0  -0.5671
  O  O286  1  0.029500  0.191750  0.436310  1.0  -0.5665
  O  O287  1  0.408100  0.438800  0.251370  1.0  -0.2467
  O  O288  1  0.973700  0.480100  0.713950  1.0  -0.2376
  O  O289  1  0.404800  0.520000  0.061880  1.0  -0.6667
  O  O290  1  0.866130  0.319580  0.574040  1.0  -0.5675
  O  O291  1  0.089600  0.434800  0.559920  1.0  -0.6023
  O  O292  1  0.161600  0.225700  0.005630  1.0  -0.4864
  O  O293  1  0.904800  0.980000  0.438120  1.0  -0.666
  O  O294  1  0.294500  0.937100  0.431670  1.0  -0.7386
  O  O295  1  0.559600  0.588120  0.047890  1.0  -0.6489
  O  O296  1  0.194900  0.814630  0.525350  1.0  -0.6723
  O  O297  1  0.521100  0.850550  0.953760  1.0  -0.6711
  O  O298  1  0.705500  0.062900  0.568330  1.0  -0.7327
  O  O299  1  0.177100  0.815400  0.267670  1.0  -0.2531
  O  O300  1  0.529500  0.308250  0.063690  1.0  -0.5638
  O  O301  1  0.305100  0.314630  0.025350  1.0  -0.6714
  O  O302  1  0.026300  0.519900  0.286050  1.0  -0.2373
  O  O303  1  0.591600  0.235500  0.949910  1.0  -0.6077
  O  O304  1  0.822900  0.184600  0.732330  1.0  -0.2527
  O  O305  1  0.595200  0.480000  0.938120  1.0  -0.6631
  O  O306  1  0.338400  0.725700  0.505630  1.0  -0.4844
  O  O307  1  0.940400  0.088120  0.547890  1.0  -0.6497
  O  O308  1  0.359600  0.023600  0.958180  1.0  -0.6217
  O  O309  1  0.838400  0.774300  0.994370  1.0  -0.4856
  O  O310  1  0.526300  0.980100  0.213950  1.0  -0.2366
  O  O311  1  0.794500  0.562900  0.068330  1.0  -0.7326
  O  O312  1  0.091900  0.938800  0.751370  1.0  -0.2459
  O  O313  1  0.021100  0.649450  0.546240  1.0  -0.6714
  O  O314  1  0.205500  0.437100  0.931670  1.0  -0.7394
  O  O315  1  0.631800  0.217200  0.583950  1.0  -0.4411
  O  O316  1  0.321200  0.684200  0.753540  1.0  -0.2589
  O  O317  1  0.473700  0.019900  0.786050  1.0  -0.2375
  O  O318  1  0.368200  0.782800  0.416050  1.0  -0.4424
  O  O319  1  0.133870  0.680420  0.425960  1.0  -0.5665
  O  O320  1  0.091600  0.264500  0.550090  1.0  -0.6077
  O  O321  1  0.589600  0.065200  0.940080  1.0  -0.6028
  O  O322  1  0.478900  0.149450  0.046240  1.0  -0.6716
  O  O323  1  0.677100  0.684600  0.232330  1.0  -0.2528
  O  O324  1  0.859600  0.476400  0.541820  1.0  -0.623
  O  O325  1  0.640400  0.976400  0.041820  1.0  -0.6229
  O  O326  1  0.821200  0.815800  0.746460  1.0  -0.2584
  O  O327  1  0.910400  0.565200  0.440080  1.0  -0.6031
  O  O328  1  0.908400  0.735500  0.449910  1.0  -0.6093
  O  O329  1  0.322900  0.315400  0.767670  1.0  -0.2529
  O  O330  1  0.591900  0.561200  0.748630  1.0  -0.2464
