# generated using pymatgen
data_MnH8(C7O3)2
_symmetry_space_group_name_H-M   'P 1'
_cell_length_a   12.54970000
_cell_length_b   17.74720000
_cell_length_c   21.78300000
_cell_angle_alpha   90.00000000
_cell_angle_beta   90.00000000
_cell_angle_gamma   97.50700000
_symmetry_Int_Tables_number   1
_chemical_formula_structural   MnH8(C7O3)2
_chemical_formula_sum   'Mn12 H96 C168 O72'
_cell_volume   4809.97098619
_cell_formula_units_Z   12
loop_
 _symmetry_equiv_pos_site_id
 _symmetry_equiv_pos_as_xyz
  1  'x, y, z'
loop_
 _atom_site_type_symbol
 _atom_site_label
 _atom_site_symmetry_multiplicity
 _atom_site_fract_x
 _atom_site_fract_y
 _atom_site_fract_z
 _atom_site_occupancy
 _atom_site_charge
  Mn  Mn1  1  0.827680  0.467290  0.845990  1.0  1.1126
  Mn  Mn2  1  0.090040  0.039840  0.594180  1.0  1.1226
  Mn  Mn3  1  0.172320  0.032710  0.345990  1.0  1.1131
  Mn  Mn4  1  0.472530  0.029390  0.629380  1.0  1.0558
  Mn  Mn5  1  0.909960  0.460160  0.094180  1.0  1.1234
  Mn  Mn6  1  0.172320  0.532710  0.154010  1.0  1.1129
  Mn  Mn7  1  0.909960  0.960160  0.405820  1.0  1.1236
  Mn  Mn8  1  0.472530  0.529390  0.870620  1.0  1.0562
  Mn  Mn9  1  0.090040  0.539840  0.905820  1.0  1.1228
  Mn  Mn10  1  0.827680  0.967290  0.654010  1.0  1.1132
  Mn  Mn11  1  0.527470  0.970610  0.370620  1.0  1.0559
  Mn  Mn12  1  0.527470  0.470610  0.129380  1.0  1.0555
  H  H13  1  0.194200  0.225300  0.484800  1.0  0.1158
  H  H14  1  0.212800  0.971800  0.787100  1.0  0.14
  H  H15  1  0.088900  0.321700  0.897200  1.0  0.1159
  H  H16  1  0.212800  0.471800  0.712900  1.0  0.1408
  H  H17  1  0.339000  0.129900  0.974400  1.0  0.1241
  H  H18  1  0.890800  0.305800  0.396900  1.0  0.1339
  H  H19  1  0.653400  0.498400  0.527000  1.0  0.1304
  H  H20  1  0.030600  0.618700  0.435800  1.0  0.1249
  H  H21  1  0.562200  0.102400  0.067800  1.0  0.1041
  H  H22  1  0.562200  0.602400  0.432200  1.0  0.1039
  H  H23  1  0.787200  0.528200  0.287100  1.0  0.14
  H  H24  1  0.911100  0.178300  0.397200  1.0  0.1159
  H  H25  1  0.109200  0.194200  0.896900  1.0  0.134
  H  H26  1  0.681000  0.743300  0.027200  1.0  0.097
  H  H27  1  0.437800  0.897600  0.932200  1.0  0.1035
  H  H28  1  0.292400  0.807300  0.366900  1.0  0.1134
  H  H29  1  0.213100  0.433500  0.935100  1.0  0.4507
  H  H30  1  0.088900  0.821700  0.602800  1.0  0.1153
  H  H31  1  0.319000  0.256700  0.972800  1.0  0.0973
  H  H32  1  0.850200  0.974900  0.038300  1.0  0.1339
  H  H33  1  0.241300  0.555100  0.306100  1.0  0.132
  H  H34  1  0.165100  0.222300  0.640200  1.0  0.11
  H  H35  1  0.626200  0.178500  0.893700  1.0  0.1322
  H  H36  1  0.503200  0.560000  0.677400  1.0  0.1338
  H  H37  1  0.009300  0.258500  0.577000  1.0  0.0968
  H  H38  1  0.319000  0.756700  0.527200  1.0  0.0974
  H  H39  1  0.496800  0.440000  0.322600  1.0  0.1342
  H  H40  1  0.850200  0.474900  0.461700  1.0  0.1342
  H  H41  1  0.834900  0.277700  0.140200  1.0  0.1098
  H  H42  1  0.758700  0.944900  0.806100  1.0  0.1316
  H  H43  1  0.342300  0.578200  0.086100  1.0  0.4007
  H  H44  1  0.179100  0.353800  0.478500  1.0  0.1265
  H  H45  1  0.596000  0.303100  0.885000  1.0  0.115
  H  H46  1  0.342300  0.078200  0.413900  1.0  0.4011
  H  H47  1  0.834900  0.777700  0.359800  1.0  0.1101
  H  H48  1  0.786900  0.566500  0.064900  1.0  0.4509
  H  H49  1  0.144800  0.349500  0.640800  1.0  0.1238
  H  H50  1  0.890800  0.805800  0.103100  1.0  0.1348
  H  H51  1  0.241300  0.055100  0.193900  1.0  0.1319
  H  H52  1  0.373800  0.321500  0.393700  1.0  0.1323
  H  H53  1  0.346600  0.001600  0.027000  1.0  0.1305
  H  H54  1  0.149800  0.025100  0.961700  1.0  0.1344
  H  H55  1  0.657700  0.421800  0.913900  1.0  0.4032
  H  H56  1  0.460400  0.770900  0.930300  1.0  0.1177
  H  H57  1  0.668200  0.315800  0.620100  1.0  0.1277
  H  H58  1  0.460400  0.270900  0.569700  1.0  0.1182
  H  H59  1  0.539600  0.229100  0.069700  1.0  0.1183
  H  H60  1  0.503200  0.060000  0.822600  1.0  0.1339
  H  H61  1  0.855200  0.150500  0.140800  1.0  0.1245
  H  H62  1  0.707600  0.192700  0.633100  1.0  0.1134
  H  H63  1  0.055400  0.436700  0.327000  1.0  0.1315
  H  H64  1  0.539600  0.729100  0.430300  1.0  0.118
  H  H65  1  0.339000  0.629900  0.525600  1.0  0.1244
  H  H66  1  0.681000  0.243300  0.472800  1.0  0.0973
  H  H67  1  0.820900  0.646200  0.521500  1.0  0.127
  H  H68  1  0.030600  0.118700  0.064200  1.0  0.1253
  H  H69  1  0.911100  0.678300  0.102800  1.0  0.1158
  H  H70  1  0.969400  0.381300  0.564200  1.0  0.1249
  H  H71  1  0.331800  0.184200  0.120100  1.0  0.126
  H  H72  1  0.194200  0.725300  0.015200  1.0  0.1163
  H  H73  1  0.009300  0.758500  0.923000  1.0  0.0967
  H  H74  1  0.437800  0.397600  0.567800  1.0  0.1037
  H  H75  1  0.165100  0.722300  0.859800  1.0  0.1103
  H  H76  1  0.055400  0.936700  0.173000  1.0  0.1315
  H  H77  1  0.661000  0.870100  0.025600  1.0  0.1245
  H  H78  1  0.787200  0.028200  0.212900  1.0  0.1411
  H  H79  1  0.944600  0.563300  0.673000  1.0  0.1312
  H  H80  1  0.990700  0.741500  0.423000  1.0  0.0965
  H  H81  1  0.373800  0.821500  0.106300  1.0  0.1332
  H  H82  1  0.990700  0.241500  0.077000  1.0  0.0966
  H  H83  1  0.213100  0.933500  0.564900  1.0  0.4496
  H  H84  1  0.657700  0.921800  0.586100  1.0  0.4028
  H  H85  1  0.144800  0.849500  0.859200  1.0  0.1235
  H  H86  1  0.404000  0.696900  0.115000  1.0  0.1157
  H  H87  1  0.707600  0.692700  0.866900  1.0  0.1132
  H  H88  1  0.944600  0.063300  0.827000  1.0  0.1311
  H  H89  1  0.661000  0.370100  0.474400  1.0  0.1241
  H  H90  1  0.109200  0.694200  0.603100  1.0  0.1344
  H  H91  1  0.596000  0.803100  0.615000  1.0  0.1156
  H  H92  1  0.149800  0.525100  0.538300  1.0  0.134
  H  H93  1  0.668200  0.815800  0.879900  1.0  0.1275
  H  H94  1  0.404000  0.196900  0.385000  1.0  0.1149
  H  H95  1  0.292400  0.307300  0.133100  1.0  0.1132
  H  H96  1  0.653400  0.998400  0.973000  1.0  0.1309
  H  H97  1  0.758700  0.444900  0.693900  1.0  0.1318
  H  H98  1  0.969400  0.881300  0.935800  1.0  0.1243
  H  H99  1  0.855200  0.650500  0.359200  1.0  0.1239
  H  H100  1  0.346600  0.501600  0.473000  1.0  0.131
  H  H101  1  0.331800  0.684200  0.379900  1.0  0.1263
  H  H102  1  0.820900  0.146200  0.978500  1.0  0.127
  H  H103  1  0.805800  0.774700  0.515200  1.0  0.1164
  H  H104  1  0.179100  0.853800  0.021500  1.0  0.1265
  H  H105  1  0.805800  0.274700  0.984800  1.0  0.1159
  H  H106  1  0.496800  0.940000  0.177400  1.0  0.1341
  H  H107  1  0.786900  0.066500  0.435100  1.0  0.4521
  H  H108  1  0.626200  0.678500  0.606300  1.0  0.1321
  C  C109  1  0.239500  0.269800  0.118800  1.0  -0.0439
  C  C110  1  0.138400  0.288400  0.105000  1.0  -0.1031
  C  C111  1  0.185100  0.140900  0.091600  1.0  0.3208
  C  C112  1  0.623600  0.011000  0.734100  1.0  0.7226
  C  C113  1  0.620400  0.759300  0.044900  1.0  -0.0161
  C  C114  1  0.383100  0.362000  0.583000  1.0  -0.1212
  C  C115  1  0.685500  0.767600  0.395000  1.0  -0.1815
  C  C116  1  0.437700  0.374400  0.924000  1.0  0.7512
  C  C117  1  0.736700  0.304200  0.611500  1.0  -0.2185
  C  C118  1  0.453400  0.292900  0.927300  1.0  -0.1377
  C  C119  1  0.861600  0.711600  0.895000  1.0  -0.1033
  C  C120  1  0.073400  0.016200  0.797400  1.0  -0.1372
  C  C121  1  0.967600  0.659200  0.561200  1.0  0.2699
  C  C122  1  0.133700  0.741300  0.033100  1.0  -0.038
  C  C123  1  0.455200  0.231700  0.404200  1.0  -0.0297
  C  C124  1  0.917000  0.843100  0.922000  1.0  -0.2023
  C  C125  1  0.711300  0.467900  0.669700  1.0  -0.1043
  C  C126  1  0.917000  0.343100  0.578000  1.0  -0.2025
  C  C127  1  0.647200  0.999900  0.930500  1.0  -0.2489
  C  C128  1  0.052200  0.187800  0.443100  1.0  -0.0967
  C  C129  1  0.437200  0.306400  0.408500  1.0  -0.2485
  C  C130  1  0.961800  0.987800  0.268200  1.0  0.7318
  C  C131  1  0.685500  0.267600  0.105000  1.0  -0.1862
  C  C132  1  0.207900  0.833800  0.873900  1.0  -0.2457
  C  C133  1  0.792100  0.166200  0.126100  1.0  -0.2469
  C  C134  1  0.367900  0.493400  0.303800  1.0  -0.113
  C  C135  1  0.289700  0.886000  0.895500  1.0  0.2972
  C  C136  1  0.961300  0.449400  0.399900  1.0  0.252
  C  C137  1  0.383100  0.862000  0.917000  1.0  -0.1268
  C  C138  1  0.569900  0.036300  0.903700  1.0  0.2806
  C  C139  1  0.437700  0.874400  0.576000  1.0  0.7473
  C  C140  1  0.736700  0.804200  0.888500  1.0  -0.2168
  C  C141  1  0.130300  0.522500  0.579500  1.0  -0.1959
  C  C142  1  0.048400  0.210600  0.914000  1.0  -0.2054
  C  C143  1  0.367900  0.993400  0.196200  1.0  -0.1132
  C  C144  1  0.647200  0.499900  0.569500  1.0  -0.2452
  C  C145  1  0.124300  0.818000  0.036100  1.0  -0.1964
  C  C146  1  0.514300  0.357900  0.434900  1.0  0.3082
  C  C147  1  0.185100  0.640900  0.408400  1.0  0.3205
  C  C148  1  0.760500  0.230200  0.618800  1.0  -0.0412
  C  C149  1  0.038700  0.050600  0.899900  1.0  0.252
  C  C150  1  0.620400  0.259300  0.455100  1.0  -0.0209
  C  C151  1  0.616900  0.138000  0.083000  1.0  -0.1256
  C  C152  1  0.562300  0.625600  0.076000  1.0  0.7466
  C  C153  1  0.038200  0.512200  0.768200  1.0  0.7309
  C  C154  1  0.866300  0.258700  0.966900  1.0  -0.0372
  C  C155  1  0.716400  0.465300  0.606400  1.0  0.2744
  C  C156  1  0.814900  0.359100  0.591600  1.0  0.3212
  C  C157  1  0.716400  0.965300  0.893600  1.0  0.2736
  C  C158  1  0.951600  0.789400  0.086000  1.0  -0.2072
  C  C159  1  0.951600  0.289400  0.414000  1.0  -0.2046
  C  C160  1  0.562800  0.193600  0.908500  1.0  -0.2492
  C  C161  1  0.220800  0.257700  0.625900  1.0  0.0117
  C  C162  1  0.559100  0.538000  0.659600  1.0  -0.1035
  C  C163  1  0.623600  0.511000  0.765900  1.0  0.7222
  C  C164  1  0.675600  0.850600  0.393700  1.0  0.7404
  C  C165  1  0.603500  0.713900  0.416400  1.0  -0.0184
  C  C166  1  0.814900  0.859100  0.908400  1.0  0.3209
  C  C167  1  0.760500  0.730200  0.881200  1.0  -0.04
  C  C168  1  0.616900  0.638000  0.417000  1.0  -0.1201
  C  C169  1  0.607600  0.834900  0.042400  1.0  -0.2153
  C  C170  1  0.710300  0.114000  0.104500  1.0  0.2966
  C  C171  1  0.283600  0.034700  0.106400  1.0  0.268
  C  C172  1  0.559100  0.038000  0.840400  1.0  -0.1014
  C  C173  1  0.940300  0.769500  0.914700  1.0  -0.0341
  C  C174  1  0.675600  0.350600  0.106300  1.0  0.7409
  C  C175  1  0.485700  0.642100  0.565100  1.0  0.3094
  C  C176  1  0.961800  0.487800  0.231800  1.0  0.7301
  C  C177  1  0.866300  0.758700  0.533100  1.0  -0.0363
  C  C178  1  0.314500  0.232400  0.605000  1.0  -0.1834
  C  C179  1  0.440900  0.962000  0.159600  1.0  -0.1011
  C  C180  1  0.607600  0.334900  0.457600  1.0  -0.2105
  C  C181  1  0.324400  0.149400  0.606300  1.0  0.7381
  C  C182  1  0.324400  0.649400  0.893700  1.0  0.7373
  C  C183  1  0.792100  0.666200  0.373900  1.0  -0.2471
  C  C184  1  0.220800  0.757700  0.874100  1.0  0.0133
  C  C185  1  0.562300  0.125600  0.424000  1.0  0.7463
  C  C186  1  0.379600  0.740700  0.544900  1.0  -0.0158
  C  C187  1  0.239500  0.769800  0.381200  1.0  -0.0406
  C  C188  1  0.991800  0.953700  0.160500  1.0  -0.1703
  C  C189  1  0.546600  0.207100  0.427300  1.0  -0.1378
  C  C190  1  0.430100  0.963700  0.096300  1.0  0.2744
  C  C191  1  0.052200  0.687800  0.056900  1.0  -0.0966
  C  C192  1  0.083000  0.156900  0.078000  1.0  -0.2011
  C  C193  1  0.396500  0.786100  0.916400  1.0  -0.0192
  C  C194  1  0.392400  0.165100  0.957600  1.0  -0.2126
  C  C195  1  0.289700  0.386000  0.604500  1.0  0.2958
  C  C196  1  0.057000  0.104400  0.450300  1.0  0.6986
  C  C197  1  0.869700  0.477500  0.420500  1.0  -0.1992
  C  C198  1  0.263300  0.195800  0.111500  1.0  -0.2205
  C  C199  1  0.167200  0.989700  0.815700  1.0  -0.1412
  C  C200  1  0.352800  0.000100  0.069500  1.0  -0.2464
  C  C201  1  0.544800  0.768300  0.595800  1.0  -0.0296
  C  C202  1  0.059700  0.230500  0.085300  1.0  -0.034
  C  C203  1  0.779200  0.742300  0.374100  1.0  0.012
  C  C204  1  0.396500  0.286100  0.583600  1.0  -0.0206
  C  C205  1  0.036600  0.786700  0.584700  1.0  -0.0369
  C  C206  1  0.032400  0.340800  0.438800  1.0  0.2718
  C  C207  1  0.430100  0.463700  0.403700  1.0  0.2753
  C  C208  1  0.057000  0.604400  0.049700  1.0  0.6973
  C  C209  1  0.036600  0.286700  0.915300  1.0  -0.04
  C  C210  1  0.569900  0.536300  0.596300  1.0  0.2802
  C  C211  1  0.632100  0.006600  0.803800  1.0  -0.1123
  C  C212  1  0.710300  0.614000  0.395500  1.0  0.2963
  C  C213  1  0.008200  0.546300  0.660500  1.0  -0.1688
  C  C214  1  0.808500  0.509500  0.377400  1.0  0.2352
  C  C215  1  0.926600  0.983800  0.202600  1.0  -0.1366
  C  C216  1  0.485700  0.142100  0.934900  1.0  0.3149
  C  C217  1  0.008200  0.046300  0.839500  1.0  -0.1687
  C  C218  1  0.083000  0.656900  0.422000  1.0  -0.2028
  C  C219  1  0.440900  0.462000  0.340400  1.0  -0.1012
  C  C220  1  0.893000  0.632200  0.888900  1.0  0.7202
  C  C221  1  0.875700  0.182000  0.963900  1.0  -0.1996
  C  C222  1  0.455200  0.731700  0.095800  1.0  -0.0315
  C  C223  1  0.283600  0.534700  0.393600  1.0  0.2663
  C  C224  1  0.711300  0.967900  0.830300  1.0  -0.1047
  C  C225  1  0.963400  0.713300  0.084700  1.0  -0.038
  C  C226  1  0.875700  0.682000  0.536100  1.0  -0.2015
  C  C227  1  0.207900  0.333800  0.626100  1.0  -0.2455
  C  C228  1  0.832800  0.010300  0.184300  1.0  -0.1411
  C  C229  1  0.288700  0.532100  0.330300  1.0  -0.1045
  C  C230  1  0.130300  0.022500  0.920500  1.0  -0.198
  C  C231  1  0.314500  0.732400  0.895000  1.0  -0.1854
  C  C232  1  0.191500  0.990500  0.877400  1.0  0.2268
  C  C233  1  0.940300  0.269500  0.585300  1.0  -0.0349
  C  C234  1  0.352800  0.500100  0.430500  1.0  -0.2491
  C  C235  1  0.779200  0.242300  0.125900  1.0  0.0093
  C  C236  1  0.632100  0.506600  0.696200  1.0  -0.114
  C  C237  1  0.947800  0.312200  0.943100  1.0  -0.0948
  C  C238  1  0.376400  0.989000  0.265900  1.0  0.7226
  C  C239  1  0.869700  0.977500  0.079500  1.0  -0.1966
  C  C240  1  0.808500  0.009500  0.122600  1.0  0.2365
  C  C241  1  0.544800  0.268300  0.904200  1.0  -0.0301
  C  C242  1  0.379600  0.240700  0.955100  1.0  -0.0145
  C  C243  1  0.832800  0.510300  0.315700  1.0  -0.1394
  C  C244  1  0.059700  0.730500  0.414700  1.0  -0.0339
  C  C245  1  0.392400  0.665100  0.542400  1.0  -0.2145
  C  C246  1  0.562800  0.693600  0.591500  1.0  -0.2504
  C  C247  1  0.167200  0.489700  0.684300  1.0  -0.1415
  C  C248  1  0.038700  0.550600  0.600100  1.0  0.2529
  C  C249  1  0.376400  0.489000  0.234100  1.0  0.7221
  C  C250  1  0.926600  0.483800  0.297400  1.0  -0.1359
  C  C251  1  0.288700  0.032100  0.169700  1.0  -0.1055
  C  C252  1  0.967600  0.159200  0.938800  1.0  0.2693
  C  C253  1  0.893000  0.132200  0.611100  1.0  0.7206
  C  C254  1  0.191500  0.490500  0.622600  1.0  0.2367
  C  C255  1  0.963400  0.213300  0.415300  1.0  -0.0388
  C  C256  1  0.453400  0.792900  0.572700  1.0  -0.1386
  C  C257  1  0.947800  0.812200  0.556900  1.0  -0.0973
  C  C258  1  0.038200  0.012200  0.731800  1.0  0.7315
  C  C259  1  0.032400  0.840800  0.061200  1.0  0.2696
  C  C260  1  0.991800  0.453700  0.339500  1.0  -0.17
  C  C261  1  0.943000  0.895600  0.549700  1.0  0.6971
  C  C262  1  0.546600  0.707100  0.072700  1.0  -0.1378
  C  C263  1  0.514300  0.857900  0.065100  1.0  0.3092
  C  C264  1  0.961300  0.949400  0.100100  1.0  0.2526
  C  C265  1  0.133700  0.241300  0.466900  1.0  -0.0383
  C  C266  1  0.263300  0.695800  0.388500  1.0  -0.2169
  C  C267  1  0.107000  0.367800  0.111100  1.0  0.7197
  C  C268  1  0.124300  0.318000  0.463900  1.0  -0.2009
  C  C269  1  0.107000  0.867800  0.388900  1.0  0.72
  C  C270  1  0.073400  0.516200  0.702600  1.0  -0.1374
  C  C271  1  0.138400  0.788400  0.395000  1.0  -0.1017
  C  C272  1  0.048400  0.710600  0.586000  1.0  -0.2046
  C  C273  1  0.603500  0.213900  0.083600  1.0  -0.0193
  C  C274  1  0.437200  0.806400  0.091500  1.0  -0.2534
  C  C275  1  0.943000  0.395600  0.950300  1.0  0.697
  C  C276  1  0.861600  0.211600  0.605000  1.0  -0.1043
  O  O277  1  0.497900  0.082300  0.391600  1.0  -0.574
  O  O278  1  0.759000  0.897000  0.387400  1.0  -0.6721
  O  O279  1  0.910900  0.918300  0.499000  1.0  -0.6893
  O  O280  1  0.026200  0.418300  0.443400  1.0  -0.2451
  O  O281  1  0.416600  0.129900  0.602200  1.0  -0.5993
  O  O282  1  0.973800  0.081700  0.943400  1.0  -0.2469
  O  O283  1  0.089100  0.581700  0.999000  1.0  -0.6897
  O  O284  1  0.797900  0.933000  0.922900  1.0  -0.2497
  O  O285  1  0.202100  0.067000  0.077100  1.0  -0.252
  O  O286  1  0.108300  0.509200  0.809100  1.0  -0.5841
  O  O287  1  0.448800  0.453100  0.213100  1.0  -0.6041
  O  O288  1  0.551200  0.046900  0.713100  1.0  -0.6032
  O  O289  1  0.279200  0.577500  0.076000  1.0  -0.7095
  O  O290  1  0.939900  0.512700  0.778280  1.0  -0.6074
  O  O291  1  0.060100  0.987300  0.278280  1.0  -0.6083
  O  O292  1  0.089100  0.081700  0.501000  1.0  -0.688
  O  O293  1  0.891700  0.990800  0.309100  1.0  -0.584
  O  O294  1  0.891700  0.490800  0.190900  1.0  -0.5844
  O  O295  1  0.910900  0.418300  0.001000  1.0  -0.6886
  O  O296  1  0.635900  0.602100  0.047600  1.0  -0.5282
  O  O297  1  0.714400  0.536400  0.399400  1.0  -0.2489
  O  O298  1  0.817400  0.577500  0.887300  1.0  -0.581
  O  O299  1  0.965100  0.439300  0.904800  1.0  -0.6885
  O  O300  1  0.498300  0.566100  0.558390  1.0  -0.2395
  O  O301  1  0.817000  0.040800  0.459200  1.0  -0.7228
  O  O302  1  0.285600  0.963600  0.899400  1.0  -0.2483
  O  O303  1  0.990700  0.126000  0.614000  1.0  -0.6125
  O  O304  1  0.009300  0.374000  0.114000  1.0  -0.6123
  O  O305  1  0.720800  0.422500  0.924000  1.0  -0.7105
  O  O306  1  0.034900  0.560700  0.095200  1.0  -0.6875
  O  O307  1  0.990700  0.626000  0.886000  1.0  -0.6128
  O  O308  1  0.502100  0.417700  0.891600  1.0  -0.5767
  O  O309  1  0.686200  0.978400  0.702900  1.0  -0.6605
  O  O310  1  0.583400  0.370100  0.102200  1.0  -0.5994
  O  O311  1  0.182600  0.922500  0.387300  1.0  -0.5804
  O  O312  1  0.241000  0.103000  0.612600  1.0  -0.6717
  O  O313  1  0.714400  0.036400  0.100600  1.0  -0.2485
  O  O314  1  0.551200  0.546900  0.786900  1.0  -0.6039
  O  O315  1  0.060100  0.487300  0.221720  1.0  -0.6082
  O  O316  1  0.313800  0.021600  0.297100  1.0  -0.6597
  O  O317  1  0.364100  0.397900  0.952400  1.0  -0.5272
  O  O318  1  0.583400  0.870100  0.397800  1.0  -0.5993
  O  O319  1  0.501700  0.433900  0.441610  1.0  -0.2385
  O  O320  1  0.108300  0.009200  0.690900  1.0  -0.5849
  O  O321  1  0.498300  0.066100  0.941610  1.0  -0.2389
  O  O322  1  0.182600  0.422500  0.112700  1.0  -0.58
  O  O323  1  0.026200  0.918300  0.056600  1.0  -0.2465
  O  O324  1  0.279200  0.077500  0.424000  1.0  -0.7073
  O  O325  1  0.313800  0.521600  0.202900  1.0  -0.6596
  O  O326  1  0.497900  0.582300  0.108400  1.0  -0.5741
  O  O327  1  0.501700  0.933900  0.058390  1.0  -0.2394
  O  O328  1  0.241000  0.603000  0.887400  1.0  -0.6711
  O  O329  1  0.416600  0.629900  0.897800  1.0  -0.5994
  O  O330  1  0.720800  0.922500  0.576000  1.0  -0.7113
  O  O331  1  0.817400  0.077500  0.612700  1.0  -0.5808
  O  O332  1  0.759000  0.397000  0.112600  1.0  -0.6737
  O  O333  1  0.183000  0.459200  0.959200  1.0  -0.7242
  O  O334  1  0.817000  0.540800  0.040800  1.0  -0.7244
  O  O335  1  0.448800  0.953100  0.286900  1.0  -0.6025
  O  O336  1  0.285600  0.463600  0.600600  1.0  -0.2481
  O  O337  1  0.202100  0.567000  0.422900  1.0  -0.2519
  O  O338  1  0.183000  0.959200  0.540800  1.0  -0.7244
  O  O339  1  0.965100  0.939300  0.595200  1.0  -0.6874
  O  O340  1  0.939900  0.012700  0.721720  1.0  -0.6074
  O  O341  1  0.364100  0.897900  0.547600  1.0  -0.5283
  O  O342  1  0.009300  0.874000  0.386000  1.0  -0.6124
  O  O343  1  0.502100  0.917700  0.608400  1.0  -0.5767
  O  O344  1  0.797900  0.433000  0.577100  1.0  -0.2502
  O  O345  1  0.635900  0.102100  0.452400  1.0  -0.5271
  O  O346  1  0.686200  0.478400  0.797100  1.0  -0.6599
  O  O347  1  0.973800  0.581700  0.556600  1.0  -0.2477
  O  O348  1  0.034900  0.060700  0.404800  1.0  -0.6893
