# generated using pymatgen
data_CdH4C8ClO4
_symmetry_space_group_name_H-M   'P 1'
_cell_length_a   18.66790000
_cell_length_b   18.66790000
_cell_length_c   17.83470000
_cell_angle_alpha   90.00000000
_cell_angle_beta   90.00000000
_cell_angle_gamma   90.00000000
_symmetry_Int_Tables_number   1
_chemical_formula_structural   CdH4C8ClO4
_chemical_formula_sum   'Cd8 H32 C64 Cl8 O32'
_cell_volume   6215.22334932
_cell_formula_units_Z   8
loop_
 _symmetry_equiv_pos_site_id
 _symmetry_equiv_pos_as_xyz
  1  'x, y, z'
loop_
 _atom_site_type_symbol
 _atom_site_label
 _atom_site_symmetry_multiplicity
 _atom_site_fract_x
 _atom_site_fract_y
 _atom_site_fract_z
 _atom_site_occupancy
 _atom_site_charge
  Cd  Cd1  1  0.572820  0.432880  0.006110  1.0  0.9002
  Cd  Cd2  1  0.927180  0.067120  0.006110  1.0  0.8997
  Cd  Cd3  1  0.567120  0.072820  0.506110  1.0  0.8993
  Cd  Cd4  1  0.932880  0.427180  0.506110  1.0  0.899
  Cd  Cd5  1  0.427180  0.567120  0.993890  1.0  0.9
  Cd  Cd6  1  0.072820  0.932880  0.993890  1.0  0.9006
  Cd  Cd7  1  0.432880  0.927180  0.493890  1.0  0.8995
  Cd  Cd8  1  0.067120  0.572820  0.493890  1.0  0.8998
  H  H9  1  0.704700  0.525200  0.799200  1.0  0.1507
  H  H10  1  0.727300  0.313900  0.815400  1.0  0.1473
  H  H11  1  0.800500  0.314300  0.711400  1.0  0.1478
  H  H12  1  0.772400  0.525400  0.691200  1.0  0.1523
  H  H13  1  0.795300  0.974800  0.799200  1.0  0.1505
  H  H14  1  0.772700  0.186100  0.815400  1.0  0.1478
  H  H15  1  0.699500  0.185700  0.711400  1.0  0.148
  H  H16  1  0.727600  0.974600  0.691200  1.0  0.1513
  H  H17  1  0.474800  0.204700  0.299200  1.0  0.1509
  H  H18  1  0.686100  0.227300  0.315400  1.0  0.1476
  H  H19  1  0.685700  0.300500  0.211400  1.0  0.1482
  H  H20  1  0.474600  0.272400  0.191200  1.0  0.1524
  H  H21  1  0.025200  0.295300  0.299200  1.0  0.1506
  H  H22  1  0.813900  0.272700  0.315400  1.0  0.1474
  H  H23  1  0.814300  0.199500  0.211400  1.0  0.1481
  H  H24  1  0.025400  0.227600  0.191200  1.0  0.1485
  H  H25  1  0.295300  0.474800  0.200800  1.0  0.1506
  H  H26  1  0.272700  0.686100  0.184600  1.0  0.1476
  H  H27  1  0.199500  0.685700  0.288600  1.0  0.1483
  H  H28  1  0.227600  0.474600  0.308800  1.0  0.1518
  H  H29  1  0.204700  0.025200  0.200800  1.0  0.151
  H  H30  1  0.227300  0.813900  0.184600  1.0  0.1472
  H  H31  1  0.300500  0.814300  0.288600  1.0  0.1481
  H  H32  1  0.272400  0.025400  0.308800  1.0  0.1525
  H  H33  1  0.525200  0.795300  0.700800  1.0  0.1509
  H  H34  1  0.313900  0.772700  0.684600  1.0  0.1472
  H  H35  1  0.314300  0.699500  0.788600  1.0  0.1488
  H  H36  1  0.525400  0.727600  0.808800  1.0  0.1525
  H  H37  1  0.974800  0.704700  0.700800  1.0  0.1509
  H  H38  1  0.186100  0.727300  0.684600  1.0  0.1473
  H  H39  1  0.185700  0.800500  0.788600  1.0  0.1484
  H  H40  1  0.974600  0.772400  0.808800  1.0  0.1488
  C  C41  1  0.709500  0.419500  0.819200  1.0  -0.0974
  C  C42  1  0.663900  0.419800  0.888700  1.0  0.7399
  C  C43  1  0.723300  0.482400  0.781100  1.0  -0.0113
  C  C44  1  0.737400  0.356900  0.791400  1.0  -0.0052
  C  C45  1  0.780300  0.357000  0.728200  1.0  -0.0013
  C  C46  1  0.793300  0.419700  0.690000  1.0  -0.0908
  C  C47  1  0.841100  0.419900  0.621600  1.0  0.7226
  C  C48  1  0.764300  0.482700  0.716700  1.0  -0.0288
  C  C49  1  0.790500  0.080500  0.819200  1.0  -0.0969
  C  C50  1  0.836100  0.080200  0.888700  1.0  0.7393
  C  C51  1  0.776700  0.017600  0.781100  1.0  -0.0107
  C  C52  1  0.762600  0.143100  0.791400  1.0  -0.0047
  C  C53  1  0.719700  0.143000  0.728200  1.0  -0.0019
  C  C54  1  0.706700  0.080300  0.690000  1.0  -0.0919
  C  C55  1  0.658900  0.080100  0.621600  1.0  0.7244
  C  C56  1  0.735700  0.017300  0.716700  1.0  -0.0292
  C  C57  1  0.580500  0.209500  0.319200  1.0  -0.0971
  C  C58  1  0.580200  0.163900  0.388700  1.0  0.7396
  C  C59  1  0.517600  0.223300  0.281100  1.0  -0.009
  C  C60  1  0.643100  0.237400  0.291400  1.0  -0.0046
  C  C61  1  0.643000  0.280300  0.228200  1.0  -0.0019
  C  C62  1  0.580300  0.293300  0.190000  1.0  -0.0915
  C  C63  1  0.580100  0.341100  0.121600  1.0  0.7239
  C  C64  1  0.517300  0.264300  0.216700  1.0  -0.0306
  C  C65  1  0.919500  0.290500  0.319200  1.0  -0.0968
  C  C66  1  0.919800  0.336100  0.388700  1.0  0.739
  C  C67  1  0.982400  0.276700  0.281100  1.0  -0.0094
  C  C68  1  0.856900  0.262600  0.291400  1.0  -0.0047
  C  C69  1  0.857000  0.219700  0.228200  1.0  0.0
  C  C70  1  0.919700  0.206700  0.190000  1.0  -0.0912
  C  C71  1  0.919900  0.158900  0.121600  1.0  0.7246
  C  C72  1  0.982700  0.235700  0.216700  1.0  -0.0294
  C  C73  1  0.290500  0.580500  0.180800  1.0  -0.0973
  C  C74  1  0.336100  0.580200  0.111300  1.0  0.7379
  C  C75  1  0.276700  0.517600  0.218900  1.0  -0.0102
  C  C76  1  0.262600  0.643100  0.208600  1.0  -0.0041
  C  C77  1  0.219700  0.643000  0.271800  1.0  -0.0015
  C  C78  1  0.206700  0.580300  0.310000  1.0  -0.0913
  C  C79  1  0.158900  0.580100  0.378400  1.0  0.7248
  C  C80  1  0.235700  0.517300  0.283300  1.0  -0.03
  C  C81  1  0.209500  0.919500  0.180800  1.0  -0.0983
  C  C82  1  0.163900  0.919800  0.111300  1.0  0.7397
  C  C83  1  0.223300  0.982400  0.218900  1.0  -0.0111
  C  C84  1  0.237400  0.856900  0.208600  1.0  -0.0042
  C  C85  1  0.280300  0.857000  0.271800  1.0  -0.0009
  C  C86  1  0.293300  0.919700  0.310000  1.0  -0.0904
  C  C87  1  0.341100  0.919900  0.378400  1.0  0.7245
  C  C88  1  0.264300  0.982700  0.283300  1.0  -0.0285
  C  C89  1  0.419500  0.790500  0.680800  1.0  -0.097
  C  C90  1  0.419800  0.836100  0.611300  1.0  0.7386
  C  C91  1  0.482400  0.776700  0.718900  1.0  -0.0099
  C  C92  1  0.356900  0.762600  0.708600  1.0  -0.004
  C  C93  1  0.357000  0.719700  0.771800  1.0  0.0005
  C  C94  1  0.419700  0.706700  0.810000  1.0  -0.09
  C  C95  1  0.419900  0.658900  0.878400  1.0  0.726
  C  C96  1  0.482700  0.735700  0.783300  1.0  -0.0314
  C  C97  1  0.080500  0.709500  0.680800  1.0  -0.0988
  C  C98  1  0.080200  0.663900  0.611300  1.0  0.7382
  C  C99  1  0.017600  0.723300  0.718900  1.0  -0.0081
  C  C100  1  0.143100  0.737400  0.708600  1.0  -0.004
  C  C101  1  0.143000  0.780300  0.771800  1.0  -0.0017
  C  C102  1  0.080300  0.793300  0.810000  1.0  -0.0914
  C  C103  1  0.080100  0.841100  0.878400  1.0  0.7243
  C  C104  1  0.017300  0.764300  0.783300  1.0  -0.0295
  Cl  Cl105  1  0.546980  0.556060  0.064510  1.0  -0.4435
  Cl  Cl106  1  0.953020  0.943940  0.064510  1.0  -0.4444
  Cl  Cl107  1  0.443940  0.046980  0.564510  1.0  -0.445
  Cl  Cl108  1  0.056060  0.453020  0.564510  1.0  -0.443
  Cl  Cl109  1  0.453020  0.443940  0.935490  1.0  -0.4452
  Cl  Cl110  1  0.046980  0.056060  0.935490  1.0  -0.444
  Cl  Cl111  1  0.556060  0.953020  0.435490  1.0  -0.444
  Cl  Cl112  1  0.943940  0.546980  0.435490  1.0  -0.4453
  O  O113  1  0.652600  0.478570  0.921510  1.0  -0.5852
  O  O114  1  0.638370  0.362530  0.912570  1.0  -0.5442
  O  O115  1  0.879090  0.366820  0.607830  1.0  -0.5397
  O  O116  1  0.841900  0.475060  0.580710  1.0  -0.6164
  O  O117  1  0.847400  0.021430  0.921510  1.0  -0.5845
  O  O118  1  0.861630  0.137470  0.912570  1.0  -0.5453
  O  O119  1  0.620910  0.133180  0.607830  1.0  -0.5381
  O  O120  1  0.658100  0.024940  0.580710  1.0  -0.6146
  O  O121  1  0.521430  0.152600  0.421510  1.0  -0.5834
  O  O122  1  0.637470  0.138370  0.412570  1.0  -0.5477
  O  O123  1  0.633180  0.379090  0.107830  1.0  -0.5383
  O  O124  1  0.524940  0.341900  0.080710  1.0  -0.6128
  O  O125  1  0.978570  0.347400  0.421510  1.0  -0.5815
  O  O126  1  0.862530  0.361630  0.412570  1.0  -0.5477
  O  O127  1  0.866820  0.120910  0.107830  1.0  -0.5401
  O  O128  1  0.975060  0.158100  0.080710  1.0  -0.6149
  O  O129  1  0.347400  0.521430  0.078490  1.0  -0.5849
  O  O130  1  0.361630  0.637470  0.087430  1.0  -0.5447
  O  O131  1  0.120910  0.633180  0.392170  1.0  -0.5384
  O  O132  1  0.158100  0.524940  0.419290  1.0  -0.6119
  O  O133  1  0.152600  0.978570  0.078490  1.0  -0.586
  O  O134  1  0.138370  0.862530  0.087430  1.0  -0.5457
  O  O135  1  0.379090  0.866820  0.392170  1.0  -0.5399
  O  O136  1  0.341900  0.975060  0.419290  1.0  -0.6132
  O  O137  1  0.478570  0.847400  0.578490  1.0  -0.5819
  O  O138  1  0.362530  0.861630  0.587430  1.0  -0.5474
  O  O139  1  0.366820  0.620910  0.892170  1.0  -0.5401
  O  O140  1  0.475060  0.658100  0.919290  1.0  -0.61
  O  O141  1  0.021430  0.652600  0.578490  1.0  -0.5835
  O  O142  1  0.137470  0.638370  0.587430  1.0  -0.548
  O  O143  1  0.133180  0.879090  0.892170  1.0  -0.539
  O  O144  1  0.024940  0.841900  0.919290  1.0  -0.6135
