# generated using pymatgen
data_CuH10C14(N3O2)2
_symmetry_space_group_name_H-M   'P 1'
_cell_length_a   11.19200000
_cell_length_b   12.40100000
_cell_length_c   12.56600000
_cell_angle_alpha   64.42400000
_cell_angle_beta   75.58600000
_cell_angle_gamma   80.44600000
_symmetry_Int_Tables_number   1
_chemical_formula_structural   CuH10C14(N3O2)2
_chemical_formula_sum   'Cu3 H30 C42 N18 O12'
_cell_volume   1520.22473714
_cell_formula_units_Z   3
loop_
 _symmetry_equiv_pos_site_id
 _symmetry_equiv_pos_as_xyz
  1  'x, y, z'
loop_
 _atom_site_type_symbol
 _atom_site_label
 _atom_site_symmetry_multiplicity
 _atom_site_fract_x
 _atom_site_fract_y
 _atom_site_fract_z
 _atom_site_occupancy
 _atom_site_charge
  Cu  Cu1  1  0.377340  0.060040  0.411820  1.0  0.8237
  Cu  Cu2  1  0.622660  0.939960  0.588180  1.0  0.8241
  Cu  Cu3  1  0.000000  0.500000  0.500000  1.0  0.531
  H  H4  1  0.930400  0.186200  0.729200  1.0  0.1277
  H  H5  1  0.050000  0.236500  0.729300  1.0  0.0955
  H  H6  1  0.228600  0.212000  0.564100  1.0  0.1144
  H  H7  1  0.139600  0.919600  0.569700  1.0  0.0865
  H  H8  1  0.706700  0.048900  0.962900  1.0  0.0966
  H  H9  1  0.775300  0.149800  0.847000  1.0  0.0892
  H  H10  1  0.696100  0.112700  0.688900  1.0  0.1072
  H  H11  1  0.799200  0.774900  0.783800  1.0  0.0996
  H  H12  1  0.727100  0.877200  0.094700  1.0  0.1149
  H  H13  1  0.785100  0.819900  0.210400  1.0  0.0963
  H  H14  1  0.537100  0.881800  0.299600  1.0  0.1192
  H  H15  1  0.613300  0.203000  0.230400  1.0  0.092
  H  H16  1  0.720300  0.300400  0.468600  1.0  0.1103
  H  H17  1  0.616900  0.651000  0.329700  1.0  0.0987
  H  H18  1  0.403800  0.413900  0.345900  1.0  0.11
  H  H19  1  0.069600  0.813800  0.270800  1.0  0.1277
  H  H20  1  0.950000  0.763500  0.270700  1.0  0.0948
  H  H21  1  0.771400  0.788000  0.435900  1.0  0.1139
  H  H22  1  0.860400  0.080400  0.430300  1.0  0.0869
  H  H23  1  0.293300  0.951100  0.037100  1.0  0.0978
  H  H24  1  0.224700  0.850200  0.153000  1.0  0.0903
  H  H25  1  0.303900  0.887300  0.311100  1.0  0.1071
  H  H26  1  0.200800  0.225100  0.216200  1.0  0.0997
  H  H27  1  0.272900  0.122800  0.905300  1.0  0.1148
  H  H28  1  0.214900  0.180100  0.789600  1.0  0.0944
  H  H29  1  0.462900  0.118200  0.700400  1.0  0.1193
  H  H30  1  0.386700  0.797000  0.769600  1.0  0.0923
  H  H31  1  0.279700  0.699600  0.531400  1.0  0.1105
  H  H32  1  0.383100  0.349000  0.670300  1.0  0.0985
  H  H33  1  0.596200  0.586100  0.654100  1.0  0.1106
  C  C34  1  0.006600  0.078700  0.878000  1.0  0.0014
  C  C35  1  0.895000  0.029900  0.949900  1.0  0.0064
  C  C36  1  0.888200  0.950900  0.070500  1.0  -0.0206
  C  C37  1  0.013400  0.164000  0.745500  1.0  -0.0977
  C  C38  1  0.189000  0.143900  0.583400  1.0  0.1292
  C  C39  1  0.138500  0.985000  0.588000  1.0  0.2761
  C  C40  1  0.778700  0.064700  0.897900  1.0  -0.0546
  C  C41  1  0.727000  0.034900  0.729900  1.0  0.1347
  C  C42  1  0.783600  0.851100  0.783400  1.0  0.2978
  C  C43  1  0.767900  0.894800  0.144600  1.0  -0.0533
  C  C44  1  0.576200  0.952700  0.269400  1.0  0.1221
  C  C45  1  0.619500  0.127300  0.230500  1.0  0.2866
  C  C46  1  0.558200  0.337600  0.411500  1.0  -0.1496
  C  C47  1  0.664600  0.362600  0.433100  1.0  0.0081
  C  C48  1  0.687400  0.479900  0.401900  1.0  -0.1522
  C  C49  1  0.602200  0.572200  0.350000  1.0  0.0077
  C  C50  1  0.496300  0.548300  0.328300  1.0  -0.1596
  C  C51  1  0.475000  0.430800  0.359700  1.0  -0.0018
  C  C52  1  0.534900  0.209300  0.447300  1.0  0.6528
  C  C53  1  0.797900  0.512100  0.426300  1.0  0.6816
  C  C54  1  0.406000  0.651600  0.272900  1.0  0.7119
  C  C55  1  0.993400  0.921300  0.122000  1.0  0.0011
  C  C56  1  0.105000  0.970100  0.050100  1.0  0.0058
  C  C57  1  0.111800  0.049100  0.929500  1.0  -0.0204
  C  C58  1  0.986600  0.836000  0.254500  1.0  -0.0986
  C  C59  1  0.811000  0.856100  0.416600  1.0  0.1307
  C  C60  1  0.861500  0.015000  0.412000  1.0  0.2758
  C  C61  1  0.221300  0.935300  0.102100  1.0  -0.0548
  C  C62  1  0.273000  0.965100  0.270100  1.0  0.1345
  C  C63  1  0.216400  0.148900  0.216600  1.0  0.3008
  C  C64  1  0.232100  0.105200  0.855400  1.0  -0.052
  C  C65  1  0.423800  0.047300  0.730600  1.0  0.1217
  C  C66  1  0.380500  0.872700  0.769500  1.0  0.286
  C  C67  1  0.441800  0.662400  0.588500  1.0  -0.1495
  C  C68  1  0.335400  0.637400  0.566900  1.0  0.0074
  C  C69  1  0.312600  0.520100  0.598100  1.0  -0.1533
  C  C70  1  0.397800  0.427800  0.650000  1.0  0.0089
  C  C71  1  0.503700  0.451700  0.671700  1.0  -0.1576
  C  C72  1  0.525000  0.569200  0.640300  1.0  -0.0009
  C  C73  1  0.465100  0.790700  0.552700  1.0  0.6519
  C  C74  1  0.202100  0.487900  0.573700  1.0  0.6792
  C  C75  1  0.594000  0.348400  0.727100  1.0  0.7127
  N  N76  1  0.226300  0.066500  0.532800  1.0  -0.3869
  N  N77  1  0.086800  0.109000  0.665300  1.0  0.1755
  N  N78  1  0.052800  0.007300  0.668800  1.0  -0.3637
  N  N79  1  0.729000  0.943800  0.700600  1.0  -0.3841
  N  N80  1  0.776200  0.997400  0.827400  1.0  0.1749
  N  N81  1  0.813000  0.879100  0.864200  1.0  -0.3645
  N  N82  1  0.532600  0.047200  0.295100  1.0  -0.4011
  N  N83  1  0.685000  0.975900  0.193500  1.0  0.1328
  N  N84  1  0.714000  0.087400  0.167600  1.0  -0.3689
  N  N85  1  0.773700  0.933500  0.467200  1.0  -0.3848
  N  N86  1  0.913200  0.891000  0.334700  1.0  0.1766
  N  N87  1  0.947200  0.992700  0.331200  1.0  -0.3666
  N  N88  1  0.271000  0.056200  0.299400  1.0  -0.3872
  N  N89  1  0.223800  0.002600  0.172600  1.0  0.1754
  N  N90  1  0.187000  0.120900  0.135800  1.0  -0.3662
  N  N91  1  0.467400  0.952800  0.704900  1.0  -0.397
  N  N92  1  0.315000  0.024100  0.806500  1.0  0.1336
  N  N93  1  0.286000  0.912600  0.832400  1.0  -0.3658
  O  O94  1  0.436800  0.193000  0.423900  1.0  -0.6067
  O  O95  1  0.611500  0.129600  0.495100  1.0  -0.5843
  O  O96  1  0.878200  0.427000  0.469300  1.0  -0.6026
  O  O97  1  0.809500  0.616900  0.406300  1.0  -0.5919
  O  O98  1  0.434400  0.754500  0.248000  1.0  -0.5594
  O  O99  1  0.311700  0.629300  0.252200  1.0  -0.548
  O  O100  1  0.563200  0.807000  0.576100  1.0  -0.6075
  O  O101  1  0.388500  0.870400  0.504900  1.0  -0.5857
  O  O102  1  0.121800  0.573000  0.530700  1.0  -0.6019
  O  O103  1  0.190500  0.383100  0.593700  1.0  -0.5922
  O  O104  1  0.565600  0.245500  0.752000  1.0  -0.5603
  O  O105  1  0.688300  0.370700  0.747800  1.0  -0.5435
