# generated using pymatgen
data_CuH32(C3N)12
_symmetry_space_group_name_H-M   'P 1'
_cell_length_a   18.44300000
_cell_length_b   18.44300000
_cell_length_c   15.16600000
_cell_angle_alpha   90.00000000
_cell_angle_beta   90.00000000
_cell_angle_gamma   90.00000000
_symmetry_Int_Tables_number   1
_chemical_formula_structural   CuH32(C3N)12
_chemical_formula_sum   'Cu2 H64 C72 N24'
_cell_volume   5158.62768033
_cell_formula_units_Z   2
loop_
 _symmetry_equiv_pos_site_id
 _symmetry_equiv_pos_as_xyz
  1  'x, y, z'
loop_
 _atom_site_type_symbol
 _atom_site_label
 _atom_site_symmetry_multiplicity
 _atom_site_fract_x
 _atom_site_fract_y
 _atom_site_fract_z
 _atom_site_occupancy
 _atom_site_charge
  Cu  Cu1  1  0.000000  0.000000  0.500000  1.0  0.2964
  Cu  Cu2  1  0.500000  0.500000  0.000000  1.0  0.2964
  H  H3  1  0.732100  0.936600  0.242800  1.0  0.0998
  H  H4  1  0.658000  0.018200  0.171200  1.0  0.0964
  H  H5  1  0.552300  0.058000  0.395000  1.0  0.0898
  H  H6  1  0.624500  0.977700  0.468700  1.0  0.1069
  H  H7  1  0.701700  0.862100  0.447500  1.0  0.0837
  H  H8  1  0.753100  0.858700  0.365100  1.0  0.0744
  H  H9  1  0.859700  0.978400  0.625800  1.0  0.0774
  H  H10  1  0.873700  0.934900  0.377500  1.0  0.0752
  H  H11  1  0.267900  0.063400  0.242800  1.0  0.0999
  H  H12  1  0.342000  0.981800  0.171200  1.0  0.0958
  H  H13  1  0.447700  0.942000  0.395000  1.0  0.0927
  H  H14  1  0.375500  0.022300  0.468700  1.0  0.107
  H  H15  1  0.298300  0.137900  0.447500  1.0  0.0829
  H  H16  1  0.246900  0.141300  0.365100  1.0  0.0752
  H  H17  1  0.140300  0.021600  0.625800  1.0  0.0783
  H  H18  1  0.126300  0.065100  0.377500  1.0  0.0772
  H  H19  1  0.936600  0.267900  0.757200  1.0  0.0999
  H  H20  1  0.018200  0.342000  0.828800  1.0  0.0961
  H  H21  1  0.058000  0.447700  0.605000  1.0  0.0904
  H  H22  1  0.977700  0.375500  0.531300  1.0  0.1081
  H  H23  1  0.862100  0.298300  0.552500  1.0  0.0852
  H  H24  1  0.858700  0.246900  0.634900  1.0  0.0764
  H  H25  1  0.978400  0.140300  0.374200  1.0  0.0766
  H  H26  1  0.934900  0.126300  0.622500  1.0  0.0771
  H  H27  1  0.063400  0.732100  0.757200  1.0  0.0999
  H  H28  1  0.981800  0.658000  0.828800  1.0  0.0967
  H  H29  1  0.942000  0.552300  0.605000  1.0  0.0887
  H  H30  1  0.022300  0.624500  0.531300  1.0  0.1076
  H  H31  1  0.137900  0.701700  0.552500  1.0  0.0848
  H  H32  1  0.141300  0.753100  0.634900  1.0  0.0749
  H  H33  1  0.021600  0.859700  0.374200  1.0  0.0772
  H  H34  1  0.065100  0.873700  0.622500  1.0  0.0739
  H  H35  1  0.232100  0.563400  0.742800  1.0  0.1
  H  H36  1  0.158000  0.481800  0.671200  1.0  0.0964
  H  H37  1  0.052300  0.442000  0.895000  1.0  0.0909
  H  H38  1  0.124500  0.522300  0.968700  1.0  0.1072
  H  H39  1  0.201700  0.637900  0.947500  1.0  0.0829
  H  H40  1  0.253100  0.641300  0.865100  1.0  0.0742
  H  H41  1  0.359700  0.521600  0.125800  1.0  0.0771
  H  H42  1  0.373700  0.565100  0.877500  1.0  0.0742
  H  H43  1  0.767900  0.436600  0.742800  1.0  0.0992
  H  H44  1  0.842000  0.518200  0.671200  1.0  0.0956
  H  H45  1  0.947700  0.558000  0.895000  1.0  0.0908
  H  H46  1  0.875500  0.477700  0.968700  1.0  0.1067
  H  H47  1  0.798300  0.362100  0.947500  1.0  0.0843
  H  H48  1  0.746900  0.358700  0.865100  1.0  0.0751
  H  H49  1  0.640300  0.478400  0.125800  1.0  0.0767
  H  H50  1  0.626300  0.434900  0.877500  1.0  0.0769
  H  H51  1  0.436600  0.232100  0.257200  1.0  0.0995
  H  H52  1  0.518200  0.158000  0.328800  1.0  0.0963
  H  H53  1  0.558000  0.052300  0.105000  1.0  0.0905
  H  H54  1  0.477700  0.124500  0.031300  1.0  0.1077
  H  H55  1  0.362100  0.201700  0.052500  1.0  0.0853
  H  H56  1  0.358700  0.253100  0.134900  1.0  0.0754
  H  H57  1  0.478400  0.359700  0.874200  1.0  0.0755
  H  H58  1  0.434900  0.373700  0.122500  1.0  0.077
  H  H59  1  0.563400  0.767900  0.257200  1.0  0.0998
  H  H60  1  0.481800  0.842000  0.328800  1.0  0.0969
  H  H61  1  0.442000  0.947700  0.105000  1.0  0.0892
  H  H62  1  0.522300  0.875500  0.031300  1.0  0.1081
  H  H63  1  0.637900  0.798300  0.052500  1.0  0.0846
  H  H64  1  0.641300  0.746900  0.134900  1.0  0.0754
  H  H65  1  0.521600  0.640300  0.874200  1.0  0.0767
  H  H66  1  0.565100  0.626300  0.122500  1.0  0.0738
  C  C67  1  0.685900  0.947000  0.362600  1.0  0.0876
  C  C68  1  0.695800  0.960600  0.273800  1.0  -0.1373
  C  C69  1  0.651200  0.010200  0.231200  1.0  -0.128
  C  C70  1  0.598300  0.047500  0.273500  1.0  0.0513
  C  C71  1  0.588600  0.033600  0.364500  1.0  -0.1366
  C  C72  1  0.631300  0.985400  0.408600  1.0  -0.126
  C  C73  1  0.732000  0.890900  0.408700  1.0  -0.1334
  C  C74  1  0.847800  0.964400  0.568700  1.0  0.2311
  C  C75  1  0.856400  0.941400  0.434600  1.0  0.1018
  C  C76  1  0.314100  0.053000  0.362600  1.0  0.0869
  C  C77  1  0.304200  0.039400  0.273800  1.0  -0.1422
  C  C78  1  0.348800  0.989800  0.231200  1.0  -0.1282
  C  C79  1  0.401700  0.952500  0.273500  1.0  0.0527
  C  C80  1  0.411400  0.966400  0.364500  1.0  -0.1369
  C  C81  1  0.368700  0.014600  0.408600  1.0  -0.124
  C  C82  1  0.268000  0.109100  0.408700  1.0  -0.1346
  C  C83  1  0.152200  0.035600  0.568700  1.0  0.2306
  C  C84  1  0.143600  0.058600  0.434600  1.0  0.1014
  C  C85  1  0.947000  0.314100  0.637400  1.0  0.0878
  C  C86  1  0.960600  0.304200  0.726200  1.0  -0.1443
  C  C87  1  0.010200  0.348800  0.768800  1.0  -0.1306
  C  C88  1  0.047500  0.401700  0.726500  1.0  0.0524
  C  C89  1  0.033600  0.411400  0.635500  1.0  -0.1369
  C  C90  1  0.985400  0.368700  0.591400  1.0  -0.1198
  C  C91  1  0.890900  0.268000  0.591300  1.0  -0.1377
  C  C92  1  0.964400  0.152200  0.431300  1.0  0.2297
  C  C93  1  0.941400  0.143600  0.565400  1.0  0.0982
  C  C94  1  0.053000  0.685900  0.637400  1.0  0.0876
  C  C95  1  0.039400  0.695800  0.726200  1.0  -0.1451
  C  C96  1  0.989800  0.651200  0.768800  1.0  -0.1302
  C  C97  1  0.952500  0.598300  0.726500  1.0  0.0532
  C  C98  1  0.966400  0.588600  0.635500  1.0  -0.1365
  C  C99  1  0.014600  0.631300  0.591400  1.0  -0.1194
  C  C100  1  0.109100  0.732000  0.591300  1.0  -0.133
  C  C101  1  0.035600  0.847800  0.431300  1.0  0.229
  C  C102  1  0.058600  0.856400  0.565400  1.0  0.0982
  C  C103  1  0.185900  0.553000  0.862600  1.0  0.0875
  C  C104  1  0.195800  0.539400  0.773800  1.0  -0.1366
  C  C105  1  0.151200  0.489800  0.731200  1.0  -0.1274
  C  C106  1  0.098300  0.452500  0.773500  1.0  0.0513
  C  C107  1  0.088600  0.466400  0.864500  1.0  -0.1358
  C  C108  1  0.131300  0.514600  0.908600  1.0  -0.1254
  C  C109  1  0.232000  0.609100  0.908700  1.0  -0.1346
  C  C110  1  0.347800  0.535600  0.068700  1.0  0.2316
  C  C111  1  0.356400  0.558600  0.934600  1.0  0.1017
  C  C112  1  0.814100  0.447000  0.862600  1.0  0.0871
  C  C113  1  0.804200  0.460600  0.773800  1.0  -0.1433
  C  C114  1  0.848800  0.510200  0.731200  1.0  -0.1287
  C  C115  1  0.901700  0.547500  0.773500  1.0  0.0528
  C  C116  1  0.911400  0.533600  0.864500  1.0  -0.1373
  C  C117  1  0.868700  0.485400  0.908600  1.0  -0.1239
  C  C118  1  0.768000  0.390900  0.908700  1.0  -0.1333
  C  C119  1  0.652200  0.464400  0.068700  1.0  0.23
  C  C120  1  0.643600  0.441400  0.934600  1.0  0.1015
  C  C121  1  0.447000  0.185900  0.137400  1.0  0.0877
  C  C122  1  0.460600  0.195800  0.226200  1.0  -0.1448
  C  C123  1  0.510200  0.151200  0.268800  1.0  -0.1291
  C  C124  1  0.547500  0.098300  0.226500  1.0  0.0524
  C  C125  1  0.533600  0.088600  0.135500  1.0  -0.1384
  C  C126  1  0.485400  0.131300  0.091400  1.0  -0.1187
  C  C127  1  0.390900  0.232000  0.091300  1.0  -0.1386
  C  C128  1  0.464400  0.347800  0.931300  1.0  0.2291
  C  C129  1  0.441400  0.356400  0.065400  1.0  0.0975
  C  C130  1  0.553000  0.814100  0.137400  1.0  0.0875
  C  C131  1  0.539400  0.804200  0.226200  1.0  -0.1446
  C  C132  1  0.489800  0.848800  0.268800  1.0  -0.1309
  C  C133  1  0.452500  0.901700  0.226500  1.0  0.053
  C  C134  1  0.466400  0.911400  0.135500  1.0  -0.1356
  C  C135  1  0.514600  0.868700  0.091400  1.0  -0.1265
  C  C136  1  0.609100  0.768000  0.091300  1.0  -0.1351
  C  C137  1  0.535600  0.652200  0.931300  1.0  0.2293
  C  C138  1  0.558600  0.643600  0.065400  1.0  0.0988
  N  N139  1  0.790800  0.925000  0.460800  1.0  0.1901
  N  N140  1  0.784400  0.939400  0.547100  1.0  -0.36
  N  N141  1  0.894600  0.968400  0.500700  1.0  -0.4068
  N  N142  1  0.209200  0.075000  0.460800  1.0  0.1892
  N  N143  1  0.215600  0.060600  0.547100  1.0  -0.3646
  N  N144  1  0.105400  0.031600  0.500700  1.0  -0.4078
  N  N145  1  0.925000  0.209200  0.539200  1.0  0.1897
  N  N146  1  0.939400  0.215600  0.452900  1.0  -0.3678
  N  N147  1  0.968400  0.105400  0.499300  1.0  -0.4067
  N  N148  1  0.075000  0.790800  0.539200  1.0  0.1882
  N  N149  1  0.060600  0.784400  0.452900  1.0  -0.3666
  N  N150  1  0.031600  0.894600  0.499300  1.0  -0.407
  N  N151  1  0.290800  0.575000  0.960800  1.0  0.1844
  N  N152  1  0.284400  0.560600  0.047100  1.0  -0.3618
  N  N153  1  0.394600  0.531600  0.000700  1.0  -0.4064
  N  N154  1  0.709200  0.425000  0.960800  1.0  0.1898
  N  N155  1  0.715600  0.439400  0.047100  1.0  -0.3641
  N  N156  1  0.605400  0.468400  0.000700  1.0  -0.4076
  N  N157  1  0.425000  0.290800  0.039200  1.0  0.1875
  N  N158  1  0.439400  0.284400  0.952900  1.0  -0.3643
  N  N159  1  0.468400  0.394600  0.999300  1.0  -0.4064
  N  N160  1  0.575000  0.709200  0.039200  1.0  0.189
  N  N161  1  0.560600  0.715600  0.952900  1.0  -0.3701
  N  N162  1  0.531600  0.605400  0.999300  1.0  -0.4077
