# generated using pymatgen
data_Er4(P2O7)3
_symmetry_space_group_name_H-M   'P 1'
_cell_length_a   13.41540000
_cell_length_b   13.41540000
_cell_length_c   13.41540000
_cell_angle_alpha   90.00000000
_cell_angle_beta   90.00000000
_cell_angle_gamma   90.00000000
_symmetry_Int_Tables_number   1
_chemical_formula_structural   Er4(P2O7)3
_chemical_formula_sum   'Er16 P24 O84'
_cell_volume   2414.40920948
_cell_formula_units_Z   4
loop_
 _symmetry_equiv_pos_site_id
 _symmetry_equiv_pos_as_xyz
  1  'x, y, z'
loop_
 _atom_site_type_symbol
 _atom_site_label
 _atom_site_symmetry_multiplicity
 _atom_site_fract_x
 _atom_site_fract_y
 _atom_site_fract_z
 _atom_site_occupancy
 _atom_site_charge
  Er  Er1  1  0.185130  0.685130  0.814870  1.0  1.6014
  Er  Er2  1  0.031640  0.531640  0.968360  1.0  1.5786
  Er  Er3  1  0.685130  0.185130  0.314870  1.0  1.6014
  Er  Er4  1  0.531640  0.031640  0.468360  1.0  1.5786
  Er  Er5  1  0.314870  0.314870  0.314870  1.0  1.6019
  Er  Er6  1  0.468360  0.468360  0.468360  1.0  1.5766
  Er  Er7  1  0.814870  0.814870  0.814870  1.0  1.6019
  Er  Er8  1  0.968360  0.968360  0.968360  1.0  1.5766
  Er  Er9  1  0.814870  0.185130  0.685130  1.0  1.5993
  Er  Er10  1  0.968360  0.031640  0.531640  1.0  1.5773
  Er  Er11  1  0.314870  0.685130  0.185130  1.0  1.5993
  Er  Er12  1  0.468360  0.531640  0.031640  1.0  1.5773
  Er  Er13  1  0.685130  0.814870  0.185130  1.0  1.6001
  Er  Er14  1  0.531640  0.968360  0.031640  1.0  1.5786
  Er  Er15  1  0.185130  0.314870  0.685130  1.0  1.6001
  Er  Er16  1  0.031640  0.468360  0.531640  1.0  1.5786
  P  P17  1  0.271400  0.448000  0.895500  1.0  1.7824
  P  P18  1  0.771400  0.948000  0.395500  1.0  1.7824
  P  P19  1  0.228600  0.552000  0.395500  1.0  1.7827
  P  P20  1  0.728600  0.052000  0.895500  1.0  1.7827
  P  P21  1  0.728600  0.948000  0.604500  1.0  1.7808
  P  P22  1  0.228600  0.448000  0.104500  1.0  1.7808
  P  P23  1  0.771400  0.052000  0.104500  1.0  1.7835
  P  P24  1  0.271400  0.552000  0.604500  1.0  1.7835
  P  P25  1  0.895500  0.271400  0.448000  1.0  1.7838
  P  P26  1  0.395500  0.771400  0.948000  1.0  1.7838
  P  P27  1  0.395500  0.228600  0.552000  1.0  1.7843
  P  P28  1  0.895500  0.728600  0.052000  1.0  1.7843
  P  P29  1  0.604500  0.728600  0.948000  1.0  1.7831
  P  P30  1  0.104500  0.228600  0.448000  1.0  1.7831
  P  P31  1  0.104500  0.771400  0.052000  1.0  1.7844
  P  P32  1  0.604500  0.271400  0.552000  1.0  1.7844
  P  P33  1  0.448000  0.895500  0.271400  1.0  1.7804
  P  P34  1  0.948000  0.395500  0.771400  1.0  1.7804
  P  P35  1  0.552000  0.395500  0.228600  1.0  1.7828
  P  P36  1  0.052000  0.895500  0.728600  1.0  1.7828
  P  P37  1  0.948000  0.604500  0.728600  1.0  1.781
  P  P38  1  0.448000  0.104500  0.228600  1.0  1.781
  P  P39  1  0.052000  0.104500  0.771400  1.0  1.7827
  P  P40  1  0.552000  0.604500  0.271400  1.0  1.7827
  O  O41  1  0.191900  0.528400  0.886600  1.0  -0.8917
  O  O42  1  0.374300  0.493500  0.903000  1.0  -0.7692
  O  O43  1  0.262600  0.370000  0.818300  1.0  -0.7872
  O  O44  1  0.691900  0.028400  0.386600  1.0  -0.8917
  O  O45  1  0.874300  0.993500  0.403000  1.0  -0.7692
  O  O46  1  0.762600  0.870000  0.318300  1.0  -0.7872
  O  O47  1  0.308100  0.471600  0.386600  1.0  -0.8918
  O  O48  1  0.125700  0.506500  0.403000  1.0  -0.769
  O  O49  1  0.237400  0.630000  0.318300  1.0  -0.7887
  O  O50  1  0.808100  0.971600  0.886600  1.0  -0.8918
  O  O51  1  0.625700  0.006500  0.903000  1.0  -0.769
  O  O52  1  0.737400  0.130000  0.818300  1.0  -0.7887
  O  O53  1  0.808100  0.028400  0.613400  1.0  -0.8921
  O  O54  1  0.625700  0.993500  0.597000  1.0  -0.7669
  O  O55  1  0.737400  0.870000  0.681700  1.0  -0.7865
  O  O56  1  0.308100  0.528400  0.113400  1.0  -0.8921
  O  O57  1  0.125700  0.493500  0.097000  1.0  -0.7669
  O  O58  1  0.237400  0.370000  0.181700  1.0  -0.7865
  O  O59  1  0.691900  0.971600  0.113400  1.0  -0.892
  O  O60  1  0.874300  0.006500  0.097000  1.0  -0.7693
  O  O61  1  0.762600  0.130000  0.181700  1.0  -0.7875
  O  O62  1  0.191900  0.471600  0.613400  1.0  -0.892
  O  O63  1  0.374300  0.506500  0.597000  1.0  -0.7693
  O  O64  1  0.262600  0.630000  0.681700  1.0  -0.7875
  O  O65  1  0.886600  0.191900  0.528400  1.0  -0.8924
  O  O66  1  0.903000  0.374300  0.493500  1.0  -0.7727
  O  O67  1  0.818300  0.262600  0.370000  1.0  -0.7846
  O  O68  1  0.386600  0.691900  0.028400  1.0  -0.8924
  O  O69  1  0.403000  0.874300  0.993500  1.0  -0.7727
  O  O70  1  0.318300  0.762600  0.870000  1.0  -0.7846
  O  O71  1  0.386600  0.308100  0.471600  1.0  -0.8931
  O  O72  1  0.403000  0.125700  0.506500  1.0  -0.7732
  O  O73  1  0.318300  0.237400  0.630000  1.0  -0.7845
  O  O74  1  0.886600  0.808100  0.971600  1.0  -0.8931
  O  O75  1  0.903000  0.625700  0.006500  1.0  -0.7732
  O  O76  1  0.818300  0.737400  0.130000  1.0  -0.7845
  O  O77  1  0.613400  0.808100  0.028400  1.0  -0.8934
  O  O78  1  0.597000  0.625700  0.993500  1.0  -0.7739
  O  O79  1  0.681700  0.737400  0.870000  1.0  -0.7842
  O  O80  1  0.113400  0.308100  0.528400  1.0  -0.8934
  O  O81  1  0.097000  0.125700  0.493500  1.0  -0.7739
  O  O82  1  0.181700  0.237400  0.370000  1.0  -0.7842
  O  O83  1  0.113400  0.691900  0.971600  1.0  -0.8937
  O  O84  1  0.097000  0.874300  0.006500  1.0  -0.7714
  O  O85  1  0.181700  0.762600  0.130000  1.0  -0.7859
  O  O86  1  0.613400  0.191900  0.471600  1.0  -0.8937
  O  O87  1  0.597000  0.374300  0.506500  1.0  -0.7714
  O  O88  1  0.681700  0.262600  0.630000  1.0  -0.7859
  O  O89  1  0.528400  0.886600  0.191900  1.0  -0.8928
  O  O90  1  0.493500  0.903000  0.374300  1.0  -0.7776
  O  O91  1  0.370000  0.818300  0.262600  1.0  -0.7852
  O  O92  1  0.028400  0.386600  0.691900  1.0  -0.8928
  O  O93  1  0.993500  0.403000  0.874300  1.0  -0.7776
  O  O94  1  0.870000  0.318300  0.762600  1.0  -0.7852
  O  O95  1  0.471600  0.386600  0.308100  1.0  -0.893
  O  O96  1  0.506500  0.403000  0.125700  1.0  -0.776
  O  O97  1  0.630000  0.318300  0.237400  1.0  -0.7851
  O  O98  1  0.971600  0.886600  0.808100  1.0  -0.893
  O  O99  1  0.006500  0.903000  0.625700  1.0  -0.776
  O  O100  1  0.130000  0.818300  0.737400  1.0  -0.7851
  O  O101  1  0.028400  0.613400  0.808100  1.0  -0.8918
  O  O102  1  0.993500  0.597000  0.625700  1.0  -0.777
  O  O103  1  0.870000  0.681700  0.737400  1.0  -0.7853
  O  O104  1  0.528400  0.113400  0.308100  1.0  -0.8918
  O  O105  1  0.493500  0.097000  0.125700  1.0  -0.777
  O  O106  1  0.370000  0.181700  0.237400  1.0  -0.7853
  O  O107  1  0.971600  0.113400  0.691900  1.0  -0.8925
  O  O108  1  0.006500  0.097000  0.874300  1.0  -0.7767
  O  O109  1  0.130000  0.181700  0.762600  1.0  -0.7844
  O  O110  1  0.471600  0.613400  0.191900  1.0  -0.8925
  O  O111  1  0.506500  0.597000  0.374300  1.0  -0.7767
  O  O112  1  0.630000  0.681700  0.262600  1.0  -0.7844
  O  O113  1  0.250000  0.393200  0.000000  1.0  -0.7834
  O  O114  1  0.250000  0.606800  0.500000  1.0  -0.7824
  O  O115  1  0.750000  0.893200  0.500000  1.0  -0.7834
  O  O116  1  0.750000  0.106800  0.000000  1.0  -0.7824
  O  O117  1  0.000000  0.250000  0.393200  1.0  -0.7812
  O  O118  1  0.500000  0.250000  0.606800  1.0  -0.7849
  O  O119  1  0.500000  0.750000  0.893200  1.0  -0.7812
  O  O120  1  0.000000  0.750000  0.106800  1.0  -0.7849
  O  O121  1  0.393200  0.000000  0.250000  1.0  -0.7782
  O  O122  1  0.606800  0.500000  0.250000  1.0  -0.7833
  O  O123  1  0.893200  0.500000  0.750000  1.0  -0.7782
  O  O124  1  0.106800  0.000000  0.750000  1.0  -0.7833
