# generated using pymatgen
data_Sr2Cu(CO2)6
_symmetry_space_group_name_H-M   'P 1'
_cell_length_a   6.34900000
_cell_length_b   10.25800000
_cell_length_c   15.73700000
_cell_angle_alpha   106.79000000
_cell_angle_beta   93.66000000
_cell_angle_gamma   103.56000000
_symmetry_Int_Tables_number   1
_chemical_formula_structural   Sr2Cu(CO2)6
_chemical_formula_sum   'Sr4 Cu2 C12 O24'
_cell_volume   944.29685293
_cell_formula_units_Z   2
loop_
 _symmetry_equiv_pos_site_id
 _symmetry_equiv_pos_as_xyz
  1  'x, y, z'
loop_
 _atom_site_type_symbol
 _atom_site_label
 _atom_site_symmetry_multiplicity
 _atom_site_fract_x
 _atom_site_fract_y
 _atom_site_fract_z
 _atom_site_occupancy
 _atom_site_charge
  Sr  Sr1  1  0.986540  0.077800  0.649600  1.0  1.5865
  Sr  Sr2  1  0.694040  0.732540  0.736270  1.0  1.6863
  Sr  Sr3  1  0.013460  0.922200  0.350400  1.0  1.5862
  Sr  Sr4  1  0.305960  0.267460  0.263730  1.0  1.6935
  Cu  Cu5  1  0.000000  0.500000  0.000000  1.0  0.8017
  Cu  Cu6  1  0.500000  0.500000  0.500000  1.0  0.8348
  C  C7  1  0.053100  0.276220  0.871790  1.0  0.5353
  C  C8  1  0.901300  0.340390  0.827480  1.0  0.5602
  C  C9  1  0.756570  0.738630  0.489260  1.0  0.5853
  C  C10  1  0.684850  0.637130  0.392360  1.0  0.568
  C  C11  1  0.430780  0.954310  0.678760  1.0  0.5724
  C  C12  1  0.248720  0.849440  0.706550  1.0  0.6199
  C  C13  1  0.946900  0.723780  0.128210  1.0  0.5321
  C  C14  1  0.098700  0.659610  0.172520  1.0  0.5623
  C  C15  1  0.243430  0.261370  0.510740  1.0  0.5851
  C  C16  1  0.315150  0.362870  0.607640  1.0  0.5718
  C  C17  1  0.569220  0.045690  0.321240  1.0  0.5723
  C  C18  1  0.751280  0.150560  0.293450  1.0  0.617
  O  O19  1  0.116600  0.336120  0.955270  1.0  -0.538
  O  O20  1  0.853600  0.446920  0.878290  1.0  -0.5595
  O  O21  1  0.108900  0.173570  0.825020  1.0  -0.6147
  O  O22  1  0.842410  0.292650  0.746430  1.0  -0.5838
  O  O23  1  0.692080  0.688440  0.550370  1.0  -0.6198
  O  O24  1  0.434580  0.485360  0.615500  1.0  -0.6587
  O  O25  1  0.868970  0.861000  0.499660  1.0  -0.6346
  O  O26  1  0.746380  0.676050  0.328570  1.0  -0.5408
  O  O27  1  0.299730  0.751700  0.726770  1.0  -0.6843
  O  O28  1  0.622250  0.944240  0.689840  1.0  -0.7284
  O  O29  1  0.368800  0.039040  0.646170  1.0  -0.6159
  O  O30  1  0.062310  0.871190  0.706020  1.0  -0.7551
  O  O31  1  0.883400  0.663880  0.044730  1.0  -0.541
  O  O32  1  0.146400  0.553080  0.121710  1.0  -0.5594
  O  O33  1  0.891100  0.826430  0.174980  1.0  -0.6111
  O  O34  1  0.157590  0.707350  0.253570  1.0  -0.5841
  O  O35  1  0.307920  0.311560  0.449630  1.0  -0.6197
  O  O36  1  0.565420  0.514640  0.384500  1.0  -0.6583
  O  O37  1  0.131030  0.139000  0.500340  1.0  -0.6372
  O  O38  1  0.253620  0.323950  0.671430  1.0  -0.5439
  O  O39  1  0.700270  0.248300  0.273230  1.0  -0.6822
  O  O40  1  0.377750  0.055760  0.310160  1.0  -0.7274
  O  O41  1  0.631200  0.960960  0.353830  1.0  -0.6165
  O  O42  1  0.937690  0.128810  0.293980  1.0  -0.756
