# generated using pymatgen
data_Ce2H8C8SO16
_symmetry_space_group_name_H-M   'P 1'
_cell_length_a   21.96000000
_cell_length_b   7.65500000
_cell_length_c   6.16700000
_cell_angle_alpha   90.00000000
_cell_angle_beta   91.47000000
_cell_angle_gamma   90.00000000
_symmetry_Int_Tables_number   1
_chemical_formula_structural   Ce2H8C8SO16
_chemical_formula_sum   'Ce4 H16 C16 S2 O32'
_cell_volume   1036.35495185
_cell_formula_units_Z   2
loop_
 _symmetry_equiv_pos_site_id
 _symmetry_equiv_pos_as_xyz
  1  'x, y, z'
loop_
 _atom_site_type_symbol
 _atom_site_label
 _atom_site_symmetry_multiplicity
 _atom_site_fract_x
 _atom_site_fract_y
 _atom_site_fract_z
 _atom_site_occupancy
 _atom_site_charge
  Ce  Ce1  1  0.645340  0.254240  0.050180  1.0  2.2054
  Ce  Ce2  1  0.145340  0.754240  0.050180  1.0  2.2054
  Ce  Ce3  1  0.354660  0.254240  0.949820  1.0  2.2027
  Ce  Ce4  1  0.854660  0.754240  0.949820  1.0  2.2027
  H  H5  1  0.606600  0.884700  0.944100  1.0  0.2629
  H  H6  1  0.759800  0.980300  0.800000  1.0  0.3996
  H  H7  1  0.617300  0.823700  0.629800  1.0  0.1246
  H  H8  1  0.712200  0.728400  0.546400  1.0  0.1147
  H  H9  1  0.106600  0.384700  0.944100  1.0  0.2629
  H  H10  1  0.259800  0.480300  0.800000  1.0  0.3996
  H  H11  1  0.117300  0.323700  0.629800  1.0  0.1246
  H  H12  1  0.212200  0.228400  0.546400  1.0  0.1147
  H  H13  1  0.393400  0.884700  0.055900  1.0  0.2601
  H  H14  1  0.240200  0.980300  0.200000  1.0  0.4006
  H  H15  1  0.382700  0.823700  0.370200  1.0  0.1243
  H  H16  1  0.287800  0.728400  0.453600  1.0  0.1129
  H  H17  1  0.893400  0.384700  0.055900  1.0  0.2601
  H  H18  1  0.740200  0.480300  0.200000  1.0  0.4006
  H  H19  1  0.882700  0.323700  0.370200  1.0  0.1243
  H  H20  1  0.787800  0.228400  0.453600  1.0  0.1129
  C  C21  1  0.655700  0.061200  0.554900  1.0  0.7066
  C  C22  1  0.650900  0.894900  0.688700  1.0  0.0618
  C  C23  1  0.710000  0.786700  0.687400  1.0  0.0741
  C  C24  1  0.707300  0.646900  0.862200  1.0  0.6871
  C  C25  1  0.155700  0.561200  0.554900  1.0  0.7066
  C  C26  1  0.150900  0.394900  0.688700  1.0  0.0618
  C  C27  1  0.210000  0.286700  0.687400  1.0  0.0741
  C  C28  1  0.207300  0.146900  0.862200  1.0  0.6871
  C  C29  1  0.344300  0.061200  0.445100  1.0  0.7059
  C  C30  1  0.349100  0.894900  0.311300  1.0  0.0609
  C  C31  1  0.290000  0.786700  0.312600  1.0  0.0755
  C  C32  1  0.292700  0.646900  0.137800  1.0  0.6862
  C  C33  1  0.844300  0.561200  0.445100  1.0  0.7059
  C  C34  1  0.849100  0.394900  0.311300  1.0  0.0609
  C  C35  1  0.790000  0.286700  0.312600  1.0  0.0755
  C  C36  1  0.792700  0.146900  0.137800  1.0  0.6862
  S  S37  1  0.500000  0.254700  0.000000  1.0  1.599
  S  S38  1  0.000000  0.754700  0.000000  1.0  1.599
  O  O39  1  0.544060  0.362200  0.885600  1.0  -0.7123
  O  O40  1  0.537580  0.144500  0.148300  1.0  -0.7992
  O  O41  1  0.655510  0.203700  0.653500  1.0  -0.6633
  O  O42  1  0.659390  0.045200  0.353200  1.0  -0.6896
  O  O43  1  0.637650  0.944600  0.905500  1.0  -0.6485
  O  O44  1  0.762970  0.892000  0.717200  1.0  -0.6052
  O  O45  1  0.664380  0.539800  0.862300  1.0  -0.6686
  O  O46  1  0.749960  0.647700  0.005500  1.0  -0.6504
  O  O47  1  0.044060  0.862200  0.885600  1.0  -0.7123
  O  O48  1  0.037580  0.644500  0.148300  1.0  -0.7992
  O  O49  1  0.155510  0.703700  0.653500  1.0  -0.6633
  O  O50  1  0.159390  0.545200  0.353200  1.0  -0.6896
  O  O51  1  0.137650  0.444600  0.905500  1.0  -0.6485
  O  O52  1  0.262970  0.392000  0.717200  1.0  -0.6052
  O  O53  1  0.164380  0.039800  0.862300  1.0  -0.6686
  O  O54  1  0.249960  0.147700  0.005500  1.0  -0.6504
  O  O55  1  0.455940  0.362200  0.114400  1.0  -0.7104
  O  O56  1  0.462420  0.144500  0.851700  1.0  -0.7959
  O  O57  1  0.344490  0.203700  0.346500  1.0  -0.6616
  O  O58  1  0.340610  0.045200  0.646800  1.0  -0.6915
  O  O59  1  0.362350  0.944600  0.094500  1.0  -0.6485
  O  O60  1  0.237030  0.892000  0.282800  1.0  -0.6036
  O  O61  1  0.335620  0.539800  0.137700  1.0  -0.6661
  O  O62  1  0.250040  0.647700  0.994500  1.0  -0.65
  O  O63  1  0.955940  0.862200  0.114400  1.0  -0.7104
  O  O64  1  0.962420  0.644500  0.851700  1.0  -0.7959
  O  O65  1  0.844490  0.703700  0.346500  1.0  -0.6616
  O  O66  1  0.840610  0.545200  0.646800  1.0  -0.6915
  O  O67  1  0.862350  0.444600  0.094500  1.0  -0.6485
  O  O68  1  0.737030  0.392000  0.282800  1.0  -0.6036
  O  O69  1  0.835620  0.039800  0.137700  1.0  -0.6661
  O  O70  1  0.750040  0.147700  0.994500  1.0  -0.65
