# generated using pymatgen
data_Ce2H8C8SO16
_symmetry_space_group_name_H-M   'P 1'
_cell_length_a   7.64390000
_cell_length_b   22.01300000
_cell_length_c   6.15560000
_cell_angle_alpha   90.00000000
_cell_angle_beta   90.00000000
_cell_angle_gamma   90.00000000
_symmetry_Int_Tables_number   1
_chemical_formula_structural   Ce2H8C8SO16
_chemical_formula_sum   'Ce4 H16 C16 S2 O32'
_cell_volume   1035.77308476
_cell_formula_units_Z   2
loop_
 _symmetry_equiv_pos_site_id
 _symmetry_equiv_pos_as_xyz
  1  'x, y, z'
loop_
 _atom_site_type_symbol
 _atom_site_label
 _atom_site_symmetry_multiplicity
 _atom_site_fract_x
 _atom_site_fract_y
 _atom_site_fract_z
 _atom_site_occupancy
 _atom_site_charge
  Ce  Ce1  1  0.479320  0.354230  0.439180  1.0  2.2121
  Ce  Ce2  1  0.520680  0.645770  0.439180  1.0  2.2125
  Ce  Ce3  1  0.020680  0.854230  0.560820  1.0  2.2106
  Ce  Ce4  1  0.979320  0.145770  0.560820  1.0  2.2137
  H  H5  1  0.845700  0.390500  0.538600  1.0  0.3409
  H  H6  1  0.763400  0.243500  0.695300  1.0  0.3995
  H  H7  1  0.907800  0.382800  0.857200  1.0  0.1201
  H  H8  1  0.004300  0.288000  0.951800  1.0  0.1068
  H  H9  1  0.154300  0.609500  0.538600  1.0  0.3408
  H  H10  1  0.236600  0.756500  0.695300  1.0  0.3995
  H  H11  1  0.092200  0.617200  0.857200  1.0  0.1198
  H  H12  1  0.995700  0.712000  0.951800  1.0  0.1069
  H  H13  1  0.654300  0.890500  0.461400  1.0  0.3422
  H  H14  1  0.736600  0.743500  0.304700  1.0  0.4009
  H  H15  1  0.592200  0.882800  0.142800  1.0  0.1209
  H  H16  1  0.495700  0.788000  0.048200  1.0  0.1077
  H  H17  1  0.345700  0.109500  0.461400  1.0  0.342
  H  H18  1  0.263400  0.256500  0.304700  1.0  0.3995
  H  H19  1  0.407800  0.117200  0.142800  1.0  0.1195
  H  H20  1  0.504300  0.212000  0.048200  1.0  0.1075
  C  C21  1  0.669900  0.343100  0.936400  1.0  0.6804
  C  C22  1  0.837500  0.349100  0.800800  1.0  0.0639
  C  C23  1  0.945500  0.290100  0.810500  1.0  0.0687
  C  C24  1  0.085700  0.292400  0.630700  1.0  0.6998
  C  C25  1  0.330100  0.656900  0.936400  1.0  0.6833
  C  C26  1  0.162500  0.650900  0.800800  1.0  0.0632
  C  C27  1  0.054500  0.709900  0.810500  1.0  0.0681
  C  C28  1  0.914300  0.707600  0.630700  1.0  0.6977
  C  C29  1  0.830100  0.843100  0.063600  1.0  0.6811
  C  C30  1  0.662500  0.849100  0.199200  1.0  0.0626
  C  C31  1  0.554500  0.790100  0.189500  1.0  0.0686
  C  C32  1  0.414300  0.792400  0.369300  1.0  0.6993
  C  C33  1  0.169900  0.156900  0.063600  1.0  0.6813
  C  C34  1  0.337500  0.150900  0.199200  1.0  0.0628
  C  C35  1  0.445500  0.209900  0.189500  1.0  0.0685
  C  C36  1  0.585700  0.207600  0.369300  1.0  0.701
  S  S37  1  0.500000  0.500000  0.446600  1.0  1.5648
  S  S38  1  0.000000  0.000000  0.553400  1.0  1.5652
  O  O39  1  0.384700  0.461680  0.581200  1.0  -0.7926
  O  O40  1  0.600700  0.456980  0.311600  1.0  -0.7725
  O  O41  1  0.527400  0.345610  0.833600  1.0  -0.6994
  O  O42  1  0.686600  0.336620  0.137600  1.0  -0.6784
  O  O43  1  0.787600  0.361980  0.584600  1.0  -0.6209
  O  O44  1  0.841700  0.236740  0.783000  1.0  -0.612
  O  O45  1  0.193200  0.335700  0.633000  1.0  -0.6523
  O  O46  1  0.085000  0.250590  0.493300  1.0  -0.6497
  O  O47  1  0.615300  0.538320  0.581200  1.0  -0.7917
  O  O48  1  0.399300  0.543020  0.311600  1.0  -0.7735
  O  O49  1  0.472600  0.654390  0.833600  1.0  -0.7017
  O  O50  1  0.313400  0.663380  0.137600  1.0  -0.6775
  O  O51  1  0.212400  0.638020  0.584600  1.0  -0.6179
  O  O52  1  0.158300  0.763260  0.783000  1.0  -0.6116
  O  O53  1  0.806800  0.664300  0.633000  1.0  -0.6526
  O  O54  1  0.915000  0.749410  0.493300  1.0  -0.6493
  O  O55  1  0.115300  0.961680  0.418800  1.0  -0.7911
  O  O56  1  0.899300  0.956980  0.688400  1.0  -0.7729
  O  O57  1  0.972600  0.845610  0.166400  1.0  -0.7002
  O  O58  1  0.813400  0.836620  0.862400  1.0  -0.6786
  O  O59  1  0.712400  0.861980  0.415400  1.0  -0.6192
  O  O60  1  0.658300  0.736740  0.217000  1.0  -0.6143
  O  O61  1  0.306800  0.835700  0.367000  1.0  -0.6516
  O  O62  1  0.415000  0.750590  0.506700  1.0  -0.65
  O  O63  1  0.884700  0.038320  0.418800  1.0  -0.791
  O  O64  1  0.100700  0.043020  0.688400  1.0  -0.7724
  O  O65  1  0.027400  0.154390  0.166400  1.0  -0.7002
  O  O66  1  0.186600  0.163380  0.862400  1.0  -0.6787
  O  O67  1  0.287600  0.138020  0.415400  1.0  -0.6162
  O  O68  1  0.341700  0.263260  0.217000  1.0  -0.6113
  O  O69  1  0.693200  0.164300  0.367000  1.0  -0.6533
  O  O70  1  0.585000  0.249410  0.506700  1.0  -0.6498
