# generated using pymatgen
data_Ce2H12C8SO18
_symmetry_space_group_name_H-M   'P 1'
_cell_length_a   21.96300000
_cell_length_b   7.65770000
_cell_length_c   6.16890000
_cell_angle_alpha   90.00000000
_cell_angle_beta   91.48000000
_cell_angle_gamma   90.00000000
_symmetry_Int_Tables_number   1
_chemical_formula_structural   Ce2H12C8SO18
_chemical_formula_sum   'Ce4 H24 C16 S2 O36'
_cell_volume   1037.17690093
_cell_formula_units_Z   2
loop_
 _symmetry_equiv_pos_site_id
 _symmetry_equiv_pos_as_xyz
  1  'x, y, z'
loop_
 _atom_site_type_symbol
 _atom_site_label
 _atom_site_symmetry_multiplicity
 _atom_site_fract_x
 _atom_site_fract_y
 _atom_site_fract_z
 _atom_site_occupancy
 _atom_site_charge
  Ce  Ce1  1  0.354680  0.746590  0.949940  1.0  2.2427
  Ce  Ce2  1  0.854680  0.246590  0.949940  1.0  2.2427
  Ce  Ce3  1  0.645320  0.746590  0.050060  1.0  2.2412
  Ce  Ce4  1  0.145320  0.246590  0.050060  1.0  2.2412
  H  H5  1  0.393800  0.112900  0.061300  1.0  0.239
  H  H6  1  0.245100  0.024200  0.198600  1.0  0.3698
  H  H7  1  0.383200  0.178900  0.367500  1.0  0.0946
  H  H8  1  0.288200  0.270200  0.455100  1.0  0.094
  H  H9  1  0.416200  0.491500  0.575800  1.0  0.477
  H  H10  1  0.366700  0.613000  0.558000  1.0  0.4206
  H  H11  1  0.893800  0.612900  0.061300  1.0  0.239
  H  H12  1  0.745100  0.524200  0.198600  1.0  0.3698
  H  H13  1  0.883200  0.678900  0.367500  1.0  0.0946
  H  H14  1  0.788200  0.770200  0.455100  1.0  0.094
  H  H15  1  0.916200  0.991500  0.575800  1.0  0.477
  H  H16  1  0.866700  0.113000  0.558000  1.0  0.4206
  H  H17  1  0.606200  0.112900  0.938700  1.0  0.2401
  H  H18  1  0.754900  0.024200  0.801400  1.0  0.3696
  H  H19  1  0.616800  0.178900  0.632500  1.0  0.0945
  H  H20  1  0.711800  0.270200  0.544900  1.0  0.094
  H  H21  1  0.583800  0.491500  0.424200  1.0  0.4797
  H  H22  1  0.633300  0.613000  0.442000  1.0  0.4221
  H  H23  1  0.106200  0.612900  0.938700  1.0  0.2401
  H  H24  1  0.254900  0.524200  0.801400  1.0  0.3696
  H  H25  1  0.116800  0.678900  0.632500  1.0  0.0945
  H  H26  1  0.211800  0.770200  0.544900  1.0  0.094
  H  H27  1  0.083800  0.991500  0.424200  1.0  0.4797
  H  H28  1  0.133300  0.113000  0.442000  1.0  0.4221
  C  C29  1  0.344400  0.939200  0.445300  1.0  0.6692
  C  C30  1  0.349600  0.107400  0.309300  1.0  0.0686
  C  C31  1  0.290300  0.212300  0.313800  1.0  0.0637
  C  C32  1  0.292900  0.354300  0.137200  1.0  0.6942
  C  C33  1  0.844400  0.439200  0.445300  1.0  0.6692
  C  C34  1  0.849600  0.607400  0.309300  1.0  0.0686
  C  C35  1  0.790300  0.712300  0.313800  1.0  0.0637
  C  C36  1  0.792900  0.854300  0.137200  1.0  0.6942
  C  C37  1  0.655600  0.939200  0.554700  1.0  0.67
  C  C38  1  0.650400  0.107400  0.690700  1.0  0.0696
  C  C39  1  0.709700  0.212300  0.686200  1.0  0.0631
  C  C40  1  0.707100  0.354300  0.862800  1.0  0.6944
  C  C41  1  0.155600  0.439200  0.554700  1.0  0.67
  C  C42  1  0.150400  0.607400  0.690700  1.0  0.0696
  C  C43  1  0.209700  0.712300  0.686200  1.0  0.0631
  C  C44  1  0.207100  0.854300  0.862800  1.0  0.6944
  S  S45  1  0.500000  0.745100  0.000000  1.0  1.6189
  S  S46  1  0.000000  0.245100  0.000000  1.0  1.6189
  O  O47  1  0.456100  0.638300  0.114200  1.0  -0.747
  O  O48  1  0.462700  0.855800  0.851400  1.0  -0.8295
  O  O49  1  0.344000  0.798900  0.344500  1.0  -0.6035
  O  O50  1  0.340900  0.955500  0.646600  1.0  -0.6841
  O  O51  1  0.362300  0.055900  0.097200  1.0  -0.6433
  O  O52  1  0.236790  0.109200  0.282500  1.0  -0.5747
  O  O53  1  0.335300  0.461800  0.139200  1.0  -0.6657
  O  O54  1  0.249900  0.354500  0.995600  1.0  -0.6768
  O  O55  1  0.388500  0.547800  0.643100  1.0  -0.8181
  O  O56  1  0.956100  0.138300  0.114200  1.0  -0.747
  O  O57  1  0.962700  0.355800  0.851400  1.0  -0.8295
  O  O58  1  0.844000  0.298900  0.344500  1.0  -0.6035
  O  O59  1  0.840900  0.455500  0.646600  1.0  -0.6841
  O  O60  1  0.862300  0.555900  0.097200  1.0  -0.6433
  O  O61  1  0.736790  0.609200  0.282500  1.0  -0.5747
  O  O62  1  0.835300  0.961800  0.139200  1.0  -0.6657
  O  O63  1  0.749900  0.854500  0.995600  1.0  -0.6768
  O  O64  1  0.888500  0.047800  0.643100  1.0  -0.8181
  O  O65  1  0.543900  0.638300  0.885800  1.0  -0.7487
  O  O66  1  0.537300  0.855800  0.148600  1.0  -0.8295
  O  O67  1  0.656000  0.798900  0.655500  1.0  -0.6033
  O  O68  1  0.659100  0.955500  0.353400  1.0  -0.6845
  O  O69  1  0.637700  0.055900  0.902800  1.0  -0.6439
  O  O70  1  0.763210  0.109200  0.717500  1.0  -0.5753
  O  O71  1  0.664700  0.461800  0.860800  1.0  -0.6651
  O  O72  1  0.750100  0.354500  0.004400  1.0  -0.6756
  O  O73  1  0.611500  0.547800  0.356900  1.0  -0.8216
  O  O74  1  0.043900  0.138300  0.885800  1.0  -0.7487
  O  O75  1  0.037300  0.355800  0.148600  1.0  -0.8295
  O  O76  1  0.156000  0.298900  0.655500  1.0  -0.6033
  O  O77  1  0.159100  0.455500  0.353400  1.0  -0.6845
  O  O78  1  0.137700  0.555900  0.902800  1.0  -0.6439
  O  O79  1  0.263210  0.609200  0.717500  1.0  -0.5753
  O  O80  1  0.164700  0.961800  0.860800  1.0  -0.6651
  O  O81  1  0.250100  0.854500  0.004400  1.0  -0.6756
  O  O82  1  0.111500  0.047800  0.356900  1.0  -0.8216
