# generated using pymatgen
data_Ce2H8C8SO16
_symmetry_space_group_name_H-M   'P 1'
_cell_length_a   7.64860000
_cell_length_b   22.01900000
_cell_length_c   6.15500000
_cell_angle_alpha   90.00000000
_cell_angle_beta   90.00000000
_cell_angle_gamma   90.00000000
_symmetry_Int_Tables_number   1
_chemical_formula_structural   Ce2H8C8SO16
_chemical_formula_sum   'Ce4 H16 C16 S2 O32'
_cell_volume   1036.59139153
_cell_formula_units_Z   2
loop_
 _symmetry_equiv_pos_site_id
 _symmetry_equiv_pos_as_xyz
  1  'x, y, z'
loop_
 _atom_site_type_symbol
 _atom_site_label
 _atom_site_symmetry_multiplicity
 _atom_site_fract_x
 _atom_site_fract_y
 _atom_site_fract_z
 _atom_site_occupancy
 _atom_site_charge
  Ce  Ce1  1  0.479380  0.854220  0.560720  1.0  2.2075
  Ce  Ce2  1  0.520620  0.145780  0.560720  1.0  2.2069
  Ce  Ce3  1  0.020620  0.354220  0.439280  1.0  2.2061
  Ce  Ce4  1  0.979380  0.645780  0.439280  1.0  2.2082
  H  H5  1  0.859200  0.885300  0.471200  1.0  0.3731
  H  H6  1  0.763500  0.743600  0.305400  1.0  0.3935
  H  H7  1  0.908200  0.882600  0.142400  1.0  0.1165
  H  H8  1  0.003500  0.788100  0.048100  1.0  0.1072
  H  H9  1  0.140800  0.114700  0.471200  1.0  0.3739
  H  H10  1  0.236500  0.256400  0.305400  1.0  0.3935
  H  H11  1  0.091800  0.117400  0.142400  1.0  0.115
  H  H12  1  0.996500  0.211900  0.048100  1.0  0.1067
  H  H13  1  0.640800  0.385300  0.528800  1.0  0.3739
  H  H14  1  0.736500  0.243600  0.694600  1.0  0.3943
  H  H15  1  0.591800  0.382600  0.857600  1.0  0.1159
  H  H16  1  0.496500  0.288100  0.951900  1.0  0.1067
  H  H17  1  0.359200  0.614700  0.528800  1.0  0.3727
  H  H18  1  0.263500  0.756400  0.694600  1.0  0.3935
  H  H19  1  0.408200  0.617400  0.857600  1.0  0.1162
  H  H20  1  0.503500  0.711900  0.951900  1.0  0.1071
  C  C21  1  0.670100  0.843350  0.065300  1.0  0.694
  C  C22  1  0.837900  0.848940  0.199100  1.0  0.0659
  C  C23  1  0.945400  0.790230  0.189800  1.0  0.0649
  C  C24  1  0.086700  0.792190  0.367800  1.0  0.7042
  C  C25  1  0.329900  0.156650  0.065300  1.0  0.694
  C  C26  1  0.162100  0.151060  0.199100  1.0  0.0644
  C  C27  1  0.054600  0.209770  0.189800  1.0  0.0643
  C  C28  1  0.913300  0.207810  0.367800  1.0  0.7035
  C  C29  1  0.829900  0.343350  0.934700  1.0  0.6951
  C  C30  1  0.662100  0.348940  0.800900  1.0  0.0651
  C  C31  1  0.554600  0.290230  0.810200  1.0  0.0648
  C  C32  1  0.413300  0.292190  0.632200  1.0  0.7027
  C  C33  1  0.170100  0.656650  0.934700  1.0  0.6954
  C  C34  1  0.337900  0.651060  0.800900  1.0  0.0661
  C  C35  1  0.445400  0.709770  0.810200  1.0  0.0654
  C  C36  1  0.586700  0.707810  0.632200  1.0  0.703
  S  S37  1  0.500000  0.000000  0.553200  1.0  1.5763
  S  S38  1  0.000000  0.500000  0.446800  1.0  1.576
  O  O39  1  0.384700  0.961790  0.418500  1.0  -0.8004
  O  O40  1  0.601300  0.957190  0.687000  1.0  -0.7747
  O  O41  1  0.527400  0.845800  0.164900  1.0  -0.6802
  O  O42  1  0.686100  0.836760  0.863200  1.0  -0.6896
  O  O43  1  0.787800  0.862090  0.416600  1.0  -0.6311
  O  O44  1  0.841600  0.736820  0.217300  1.0  -0.6163
  O  O45  1  0.192700  0.835510  0.367800  1.0  -0.6596
  O  O46  1  0.086000  0.750430  0.506300  1.0  -0.6607
  O  O47  1  0.615300  0.038210  0.418500  1.0  -0.8007
  O  O48  1  0.398700  0.042810  0.687000  1.0  -0.7768
  O  O49  1  0.472600  0.154200  0.164900  1.0  -0.6831
  O  O50  1  0.313900  0.163240  0.863200  1.0  -0.689
  O  O51  1  0.212200  0.137910  0.416600  1.0  -0.6281
  O  O52  1  0.158400  0.263180  0.217300  1.0  -0.6149
  O  O53  1  0.807300  0.164490  0.367800  1.0  -0.6608
  O  O54  1  0.914000  0.249570  0.506300  1.0  -0.6614
  O  O55  1  0.115300  0.461790  0.581500  1.0  -0.8028
  O  O56  1  0.898700  0.457190  0.313000  1.0  -0.7749
  O  O57  1  0.972600  0.345800  0.835100  1.0  -0.6825
  O  O58  1  0.813900  0.336760  0.136800  1.0  -0.689
  O  O59  1  0.712200  0.362090  0.583400  1.0  -0.6297
  O  O60  1  0.658400  0.236820  0.782700  1.0  -0.6155
  O  O61  1  0.307300  0.335510  0.632200  1.0  -0.6595
  O  O62  1  0.414000  0.250430  0.493700  1.0  -0.6606
  O  O63  1  0.884700  0.538210  0.581500  1.0  -0.8023
  O  O64  1  0.101300  0.542810  0.313000  1.0  -0.7749
  O  O65  1  0.027400  0.654200  0.835100  1.0  -0.6816
  O  O66  1  0.186100  0.663240  0.136800  1.0  -0.6883
  O  O67  1  0.287800  0.637910  0.583400  1.0  -0.6288
  O  O68  1  0.341600  0.763180  0.782700  1.0  -0.614
  O  O69  1  0.692700  0.664490  0.632200  1.0  -0.6612
  O  O70  1  0.586000  0.749570  0.493700  1.0  -0.6607
