# generated using pymatgen
data_V2CuH12C15N3O4
_symmetry_space_group_name_H-M   'P 1'
_cell_length_a   11.32730000
_cell_length_b   11.57440000
_cell_length_c   16.24340000
_cell_angle_alpha   105.50500000
_cell_angle_beta   110.40600000
_cell_angle_gamma   90.00000000
_symmetry_Int_Tables_number   1
_chemical_formula_structural   V2CuH12C15N3O4
_chemical_formula_sum   'V8 Cu4 H48 C60 N12 O16'
_cell_volume   1913.06589580
_cell_formula_units_Z   4
loop_
 _symmetry_equiv_pos_site_id
 _symmetry_equiv_pos_as_xyz
  1  'x, y, z'
loop_
 _atom_site_type_symbol
 _atom_site_label
 _atom_site_symmetry_multiplicity
 _atom_site_fract_x
 _atom_site_fract_y
 _atom_site_fract_z
 _atom_site_occupancy
 _atom_site_charge
  V  V1  1  0.764210  0.060310  0.710380  1.0  1.2125
  V  V2  1  0.053830  0.439690  0.289620  1.0  1.215
  V  V3  1  0.946170  0.560310  0.710380  1.0  1.2135
  V  V4  1  0.803010  0.818280  0.784820  1.0  1.1987
  V  V5  1  0.196990  0.181720  0.215180  1.0  1.1982
  V  V6  1  0.981810  0.318280  0.784820  1.0  1.1956
  V  V7  1  0.235790  0.939690  0.289620  1.0  1.214
  V  V8  1  0.018190  0.681720  0.215180  1.0  1.1919
  Cu  Cu9  1  0.000000  0.000000  0.000000  1.0  0.4889
  Cu  Cu10  1  0.000000  0.500000  0.000000  1.0  0.4889
  Cu  Cu11  1  0.000000  0.500000  0.500000  1.0  0.5529
  Cu  Cu12  1  0.500000  0.000000  0.500000  1.0  0.5529
  H  H13  1  0.687600  0.808200  0.555800  1.0  0.0783
  H  H14  1  0.211300  0.809600  0.771800  1.0  0.1233
  H  H15  1  0.318600  0.554200  0.409800  1.0  0.1102
  H  H16  1  0.235400  0.683000  0.126400  1.0  0.0771
  H  H17  1  0.729300  0.364000  0.416600  1.0  0.0638
  H  H18  1  0.439500  0.690400  0.228200  1.0  0.1238
  H  H19  1  0.806800  0.669800  0.938000  1.0  0.0763
  H  H20  1  0.929000  0.750900  0.600400  1.0  0.0778
  H  H21  1  0.312700  0.136000  0.583400  1.0  0.0638
  H  H22  1  0.504500  0.138700  0.360200  1.0  0.0726
  H  H23  1  0.781300  0.860400  0.311400  1.0  0.1121
  H  H24  1  0.342100  0.351300  0.742400  1.0  0.1217
  H  H25  1  0.400300  0.851300  0.742400  1.0  0.1236
  H  H26  1  0.144300  0.361300  0.639800  1.0  0.0724
  H  H27  1  0.071000  0.249100  0.399600  1.0  0.0779
  H  H28  1  0.393400  0.325700  0.159600  1.0  0.1176
  H  H29  1  0.193200  0.330200  0.062000  1.0  0.0765
  H  H30  1  0.766200  0.825700  0.159600  1.0  0.1156
  H  H31  1  0.687300  0.864000  0.416600  1.0  0.0644
  H  H32  1  0.606600  0.674300  0.840400  1.0  0.1175
  H  H33  1  0.788700  0.190400  0.228200  1.0  0.1227
  H  H34  1  0.530100  0.360400  0.311400  1.0  0.1135
  H  H35  1  0.469900  0.639600  0.688600  1.0  0.1135
  H  H36  1  0.309900  0.385800  0.431000  1.0  0.1196
  H  H37  1  0.121100  0.885800  0.431000  1.0  0.1207
  H  H38  1  0.657900  0.648700  0.257600  1.0  0.1238
  H  H39  1  0.908800  0.945800  0.590200  1.0  0.1105
  H  H40  1  0.690100  0.614200  0.569000  1.0  0.1196
  H  H41  1  0.270700  0.636000  0.583400  1.0  0.0636
  H  H42  1  0.091200  0.054200  0.409800  1.0  0.1108
  H  H43  1  0.599700  0.148700  0.257600  1.0  0.1238
  H  H44  1  0.131800  0.691800  0.444200  1.0  0.0764
  H  H45  1  0.891000  0.183000  0.126400  1.0  0.0763
  H  H46  1  0.855700  0.638700  0.360200  1.0  0.0722
  H  H47  1  0.312400  0.191800  0.444200  1.0  0.0778
  H  H48  1  0.328600  0.749100  0.399600  1.0  0.0758
  H  H49  1  0.131200  0.169800  0.938000  1.0  0.0762
  H  H50  1  0.218700  0.139600  0.688600  1.0  0.1129
  H  H51  1  0.560500  0.309600  0.771800  1.0  0.1234
  H  H52  1  0.109000  0.817000  0.873600  1.0  0.0771
  H  H53  1  0.495500  0.861300  0.639800  1.0  0.0726
  H  H54  1  0.233800  0.174300  0.840400  1.0  0.116
  H  H55  1  0.764600  0.317000  0.873600  1.0  0.0777
  H  H56  1  0.868200  0.308200  0.555800  1.0  0.0772
  H  H57  1  0.878900  0.114200  0.569000  1.0  0.1209
  H  H58  1  0.868800  0.830200  0.062000  1.0  0.0756
  H  H59  1  0.671400  0.250900  0.600400  1.0  0.0756
  H  H60  1  0.681400  0.445800  0.590200  1.0  0.1097
  C  C61  1  0.085030  0.743900  0.474060  1.0  0.1628
  C  C62  1  0.273590  0.079900  0.678580  1.0  -0.2105
  C  C63  1  0.380980  0.911200  0.710960  1.0  -0.1985
  C  C64  1  0.569130  0.506400  0.272660  1.0  0.1121
  C  C65  1  0.498270  0.438500  0.506140  1.0  0.0581
  C  C66  1  0.147340  0.095400  0.903480  1.0  0.1756
  C  C67  1  0.714770  0.422400  0.383740  1.0  0.1789
  C  C68  1  0.402860  0.722200  0.435720  1.0  0.1719
  C  C69  1  0.914970  0.256100  0.525940  1.0  0.1629
  C  C70  1  0.032860  0.222200  0.435720  1.0  0.172
  C  C71  1  0.726410  0.920100  0.321420  1.0  -0.2125
  C  C72  1  0.389030  0.243900  0.474060  1.0  0.1636
  C  C73  1  0.791380  0.901000  0.154560  1.0  -0.2289
  C  C74  1  0.430870  0.493600  0.727340  1.0  0.1118
  C  C75  1  0.597140  0.277800  0.564280  1.0  0.1715
  C  C76  1  0.563590  0.082900  0.351380  1.0  0.1678
  C  C77  1  0.441450  0.508600  0.206900  1.0  0.0926
  C  C78  1  0.731810  0.390600  0.866020  1.0  0.1531
  C  C79  1  0.787790  0.582900  0.351380  1.0  0.1704
  C  C80  1  0.390630  0.614800  0.194860  1.0  -0.2083
  C  C81  1  0.804230  0.114800  0.194860  1.0  -0.208
  C  C82  1  0.610970  0.756100  0.525940  1.0  0.1634
  C  C83  1  0.404990  0.579900  0.678580  1.0  -0.2138
  C  C84  1  0.609370  0.385200  0.805140  1.0  -0.2094
  C  C85  1  0.501730  0.561500  0.493860  1.0  0.0582
  C  C86  1  0.436410  0.917100  0.648620  1.0  0.1684
  C  C87  1  0.243860  0.404600  0.096520  1.0  0.1762
  C  C88  1  0.234550  0.991400  0.793100  1.0  0.0924
  C  C89  1  0.967140  0.777800  0.564280  1.0  0.172
  C  C90  1  0.386680  0.360000  0.464960  1.0  -0.2254
  C  C91  1  0.613320  0.640000  0.535040  1.0  -0.2251
  C  C92  1  0.603960  0.395100  0.558320  1.0  -0.2063
  C  C93  1  0.865790  0.109400  0.133980  1.0  0.1533
  C  C94  1  0.668970  0.922400  0.383740  1.0  0.179
  C  C95  1  0.852660  0.904600  0.096520  1.0  0.1768
  C  C96  1  0.296470  0.993600  0.727340  1.0  0.1098
  C  C97  1  0.992130  0.061500  0.493860  1.0  0.0581
  C  C98  1  0.331030  0.077600  0.616260  1.0  0.1769
  C  C99  1  0.212210  0.417100  0.648620  1.0  0.1709
  C  C100  1  0.078280  0.860000  0.464960  1.0  -0.2247
  C  C101  1  0.954360  0.895100  0.558320  1.0  -0.2039
  C  C102  1  0.921720  0.140000  0.535040  1.0  -0.224
  C  C103  1  0.756140  0.595400  0.903480  1.0  0.1782
  C  C104  1  0.007870  0.938500  0.506140  1.0  0.0581
  C  C105  1  0.268190  0.609400  0.133980  1.0  0.1537
  C  C106  1  0.285230  0.577600  0.616260  1.0  0.1788
  C  C107  1  0.595010  0.420100  0.321420  1.0  -0.2135
  C  C108  1  0.363180  0.401000  0.154560  1.0  -0.2305
  C  C109  1  0.558550  0.491400  0.793100  1.0  0.0967
  C  C110  1  0.670020  0.588800  0.289040  1.0  -0.1947
  C  C111  1  0.765450  0.008600  0.206900  1.0  0.0921
  C  C112  1  0.703530  0.006400  0.272660  1.0  0.1087
  C  C113  1  0.208620  0.099000  0.845440  1.0  -0.2296
  C  C114  1  0.195770  0.885200  0.805140  1.0  -0.2073
  C  C115  1  0.329980  0.411200  0.710960  1.0  -0.1956
  C  C116  1  0.134210  0.890600  0.866020  1.0  0.1541
  C  C117  1  0.619020  0.088800  0.289040  1.0  -0.1985
  C  C118  1  0.045640  0.104900  0.441680  1.0  -0.2041
  C  C119  1  0.636820  0.599000  0.845440  1.0  -0.2332
  C  C120  1  0.396040  0.604900  0.441680  1.0  -0.2056
  N  N121  1  0.108350  0.993300  0.914900  1.0  -0.3166
  N  N122  1  0.193450  0.506700  0.085100  1.0  -0.3146
  N  N123  1  0.492110  0.200500  0.522020  1.0  -0.3228
  N  N124  1  0.187720  0.497800  0.599240  1.0  -0.3442
  N  N125  1  0.029910  0.700500  0.522020  1.0  -0.3228
  N  N126  1  0.588480  0.002200  0.400760  1.0  -0.3418
  N  N127  1  0.970090  0.299500  0.477980  1.0  -0.324
  N  N128  1  0.812280  0.502200  0.400760  1.0  -0.3427
  N  N129  1  0.411520  0.997800  0.599240  1.0  -0.3439
  N  N130  1  0.507890  0.799500  0.477980  1.0  -0.3238
  N  N131  1  0.891650  0.006700  0.085100  1.0  -0.3203
  N  N132  1  0.806550  0.493300  0.914900  1.0  -0.313
  O  O133  1  0.885010  0.176200  0.734420  1.0  -0.7426
  O  O134  1  0.925800  0.526900  0.599400  1.0  -0.7925
  O  O135  1  0.123010  0.137000  0.101820  1.0  -0.7672
  O  O136  1  0.114990  0.823800  0.265580  1.0  -0.7422
  O  O137  1  0.021190  0.363000  0.898180  1.0  -0.7685
  O  O138  1  0.102200  0.572100  0.267000  1.0  -0.7923
  O  O139  1  0.074200  0.473100  0.400600  1.0  -0.7904
  O  O140  1  0.876990  0.863000  0.898180  1.0  -0.768
  O  O141  1  0.897800  0.427900  0.733000  1.0  -0.7914
  O  O142  1  0.150590  0.323800  0.265580  1.0  -0.7441
  O  O143  1  0.835200  0.927900  0.733000  1.0  -0.7948
  O  O144  1  0.978810  0.637000  0.101820  1.0  -0.7677
  O  O145  1  0.673600  0.026900  0.599400  1.0  -0.7925
  O  O146  1  0.164800  0.072100  0.267000  1.0  -0.7955
  O  O147  1  0.849410  0.676200  0.734420  1.0  -0.7421
  O  O148  1  0.326400  0.973100  0.400600  1.0  -0.7914
