# generated using pymatgen
data_PrSiH16(C7O2)4
_symmetry_space_group_name_H-M   'P 1'
_cell_length_a   24.27420000
_cell_length_b   16.12500000
_cell_length_c   22.03310000
_cell_angle_alpha   90.00000000
_cell_angle_beta   100.22000000
_cell_angle_gamma   90.00000000
_symmetry_Int_Tables_number   1
_chemical_formula_structural   PrSiH16(C7O2)4
_chemical_formula_sum   'Pr8 Si8 H128 C224 O64'
_cell_volume   8487.39419544
_cell_formula_units_Z   8
loop_
 _symmetry_equiv_pos_site_id
 _symmetry_equiv_pos_as_xyz
  1  'x, y, z'
loop_
 _atom_site_type_symbol
 _atom_site_label
 _atom_site_symmetry_multiplicity
 _atom_site_fract_x
 _atom_site_fract_y
 _atom_site_fract_z
 _atom_site_occupancy
 _atom_site_charge
  Pr  Pr1  1  0.258770  0.210540  0.595630  1.0  2.1622
  Pr  Pr2  1  0.758770  0.710540  0.595630  1.0  2.1622
  Pr  Pr3  1  0.741230  0.210540  0.904370  1.0  2.1625
  Pr  Pr4  1  0.241230  0.710540  0.904370  1.0  2.1625
  Pr  Pr5  1  0.741230  0.789460  0.404370  1.0  2.1625
  Pr  Pr6  1  0.241230  0.289460  0.404370  1.0  2.1625
  Pr  Pr7  1  0.258770  0.789460  0.095630  1.0  2.1624
  Pr  Pr8  1  0.758770  0.289460  0.095630  1.0  2.1624
  Si  Si9  1  0.379550  0.273810  0.006700  1.0  0.9281
  Si  Si10  1  0.879550  0.773810  0.006700  1.0  0.9281
  Si  Si11  1  0.620450  0.273810  0.493300  1.0  0.928
  Si  Si12  1  0.120450  0.773810  0.493300  1.0  0.928
  Si  Si13  1  0.620450  0.726190  0.993300  1.0  0.9282
  Si  Si14  1  0.120450  0.226190  0.993300  1.0  0.9282
  Si  Si15  1  0.379550  0.726190  0.506700  1.0  0.9282
  Si  Si16  1  0.879550  0.226190  0.506700  1.0  0.9282
  H  H17  1  0.430000  0.221800  0.898300  1.0  0.0899
  H  H18  1  0.275400  0.282900  0.919100  1.0  0.0857
  H  H19  1  0.246000  0.271300  0.814400  1.0  0.1154
  H  H20  1  0.400800  0.213000  0.793800  1.0  0.1205
  H  H21  1  0.467700  0.393500  0.053100  1.0  0.09
  H  H22  1  0.469200  0.155000  0.012100  1.0  0.0969
  H  H23  1  0.563800  0.392000  0.083800  1.0  0.1105
  H  H24  1  0.565700  0.153500  0.036400  1.0  0.1107
  H  H25  1  0.380000  0.435800  0.956000  1.0  0.117
  H  H26  1  0.315700  0.346500  0.098300  1.0  0.0873
  H  H27  1  0.286300  0.480900  0.118800  1.0  0.1125
  H  H28  1  0.344500  0.566700  0.973400  1.0  0.0985
  H  H29  1  0.313900  0.121900  0.979200  1.0  0.0868
  H  H30  1  0.387900  0.228000  0.133900  1.0  0.1021
  H  H31  1  0.357400  0.120800  0.189500  1.0  0.1134
  H  H32  1  0.280800  0.017400  0.033400  1.0  0.0973
  H  H33  1  0.930000  0.721800  0.898300  1.0  0.0899
  H  H34  1  0.775400  0.782900  0.919100  1.0  0.0857
  H  H35  1  0.746000  0.771300  0.814400  1.0  0.1154
  H  H36  1  0.900800  0.713000  0.793800  1.0  0.1205
  H  H37  1  0.967700  0.893500  0.053100  1.0  0.09
  H  H38  1  0.969200  0.655000  0.012100  1.0  0.0969
  H  H39  1  0.063800  0.892000  0.083800  1.0  0.1105
  H  H40  1  0.065700  0.653500  0.036400  1.0  0.1107
  H  H41  1  0.880000  0.935800  0.956000  1.0  0.117
  H  H42  1  0.815700  0.846500  0.098300  1.0  0.0873
  H  H43  1  0.786300  0.980900  0.118800  1.0  0.1125
  H  H44  1  0.844500  0.066700  0.973400  1.0  0.0985
  H  H45  1  0.813900  0.621900  0.979200  1.0  0.0868
  H  H46  1  0.887900  0.728000  0.133900  1.0  0.1021
  H  H47  1  0.857400  0.620800  0.189500  1.0  0.1134
  H  H48  1  0.780800  0.517400  0.033400  1.0  0.0973
  H  H49  1  0.570000  0.221800  0.601700  1.0  0.091
  H  H50  1  0.724600  0.282900  0.580900  1.0  0.0854
  H  H51  1  0.754000  0.271300  0.685600  1.0  0.1158
  H  H52  1  0.599200  0.213000  0.706200  1.0  0.1205
  H  H53  1  0.532300  0.393500  0.446900  1.0  0.0892
  H  H54  1  0.530800  0.155000  0.487900  1.0  0.0966
  H  H55  1  0.436200  0.392000  0.416200  1.0  0.1109
  H  H56  1  0.434300  0.153500  0.463600  1.0  0.1102
  H  H57  1  0.620000  0.435800  0.544000  1.0  0.1165
  H  H58  1  0.684300  0.346500  0.401700  1.0  0.088
  H  H59  1  0.713700  0.480900  0.381200  1.0  0.1122
  H  H60  1  0.655500  0.566700  0.526600  1.0  0.0981
  H  H61  1  0.686100  0.121900  0.520800  1.0  0.0869
  H  H62  1  0.612100  0.228000  0.366100  1.0  0.102
  H  H63  1  0.642600  0.120800  0.310500  1.0  0.1138
  H  H64  1  0.719200  0.017400  0.466600  1.0  0.0975
  H  H65  1  0.070000  0.721800  0.601700  1.0  0.091
  H  H66  1  0.224600  0.782900  0.580900  1.0  0.0854
  H  H67  1  0.254000  0.771300  0.685600  1.0  0.1158
  H  H68  1  0.099200  0.713000  0.706200  1.0  0.1205
  H  H69  1  0.032300  0.893500  0.446900  1.0  0.0892
  H  H70  1  0.030800  0.655000  0.487900  1.0  0.0966
  H  H71  1  0.936200  0.892000  0.416200  1.0  0.1109
  H  H72  1  0.934300  0.653500  0.463600  1.0  0.1102
  H  H73  1  0.120000  0.935800  0.544000  1.0  0.1165
  H  H74  1  0.184300  0.846500  0.401700  1.0  0.088
  H  H75  1  0.213700  0.980900  0.381200  1.0  0.1122
  H  H76  1  0.155500  0.066700  0.526600  1.0  0.0981
  H  H77  1  0.186100  0.621900  0.520800  1.0  0.0869
  H  H78  1  0.112100  0.728000  0.366100  1.0  0.102
  H  H79  1  0.142600  0.620800  0.310500  1.0  0.1138
  H  H80  1  0.219200  0.517400  0.466600  1.0  0.0975
  H  H81  1  0.570000  0.778200  0.101700  1.0  0.0905
  H  H82  1  0.724600  0.717100  0.080900  1.0  0.0853
  H  H83  1  0.754000  0.728700  0.185600  1.0  0.1159
  H  H84  1  0.599200  0.787000  0.206200  1.0  0.1203
  H  H85  1  0.532300  0.606500  0.946900  1.0  0.0886
  H  H86  1  0.530800  0.845000  0.987900  1.0  0.0962
  H  H87  1  0.436200  0.608000  0.916200  1.0  0.1105
  H  H88  1  0.434300  0.846500  0.963600  1.0  0.1102
  H  H89  1  0.620000  0.564200  0.044000  1.0  0.1169
  H  H90  1  0.684300  0.653500  0.901700  1.0  0.0879
  H  H91  1  0.713700  0.519100  0.881200  1.0  0.1122
  H  H92  1  0.655500  0.433300  0.026600  1.0  0.0982
  H  H93  1  0.686100  0.878100  0.020800  1.0  0.0866
  H  H94  1  0.612100  0.772000  0.866100  1.0  0.1021
  H  H95  1  0.642600  0.879200  0.810500  1.0  0.1139
  H  H96  1  0.719200  0.982600  0.966600  1.0  0.0975
  H  H97  1  0.070000  0.278200  0.101700  1.0  0.0905
  H  H98  1  0.224600  0.217100  0.080900  1.0  0.0853
  H  H99  1  0.254000  0.228700  0.185600  1.0  0.1159
  H  H100  1  0.099200  0.287000  0.206200  1.0  0.1203
  H  H101  1  0.032300  0.106500  0.946900  1.0  0.0886
  H  H102  1  0.030800  0.345000  0.987900  1.0  0.0962
  H  H103  1  0.936200  0.108000  0.916200  1.0  0.1105
  H  H104  1  0.934300  0.346500  0.963600  1.0  0.1102
  H  H105  1  0.120000  0.064200  0.044000  1.0  0.1169
  H  H106  1  0.184300  0.153500  0.901700  1.0  0.0879
  H  H107  1  0.213700  0.019100  0.881200  1.0  0.1122
  H  H108  1  0.155500  0.933300  0.026600  1.0  0.0982
  H  H109  1  0.186100  0.378100  0.020800  1.0  0.0866
  H  H110  1  0.112100  0.272000  0.866100  1.0  0.1021
  H  H111  1  0.142600  0.379200  0.810500  1.0  0.1139
  H  H112  1  0.219200  0.482600  0.966600  1.0  0.0975
  H  H113  1  0.430000  0.778200  0.398300  1.0  0.0904
  H  H114  1  0.275400  0.717100  0.419100  1.0  0.0856
  H  H115  1  0.246000  0.728700  0.314400  1.0  0.1155
  H  H116  1  0.400800  0.787000  0.293800  1.0  0.1205
  H  H117  1  0.467700  0.606500  0.553100  1.0  0.0894
  H  H118  1  0.469200  0.845000  0.512100  1.0  0.097
  H  H119  1  0.563800  0.608000  0.583800  1.0  0.1107
  H  H120  1  0.565700  0.846500  0.536400  1.0  0.1109
  H  H121  1  0.380000  0.564200  0.456000  1.0  0.117
  H  H122  1  0.315700  0.653500  0.598300  1.0  0.0873
  H  H123  1  0.286300  0.519100  0.618800  1.0  0.1126
  H  H124  1  0.344500  0.433300  0.473400  1.0  0.0982
  H  H125  1  0.313900  0.878100  0.479200  1.0  0.0869
  H  H126  1  0.387900  0.772000  0.633900  1.0  0.1022
  H  H127  1  0.357400  0.879200  0.689500  1.0  0.1134
  H  H128  1  0.280800  0.982600  0.533400  1.0  0.0979
  H  H129  1  0.930000  0.278200  0.398300  1.0  0.0904
  H  H130  1  0.775400  0.217100  0.419100  1.0  0.0856
  H  H131  1  0.746000  0.228700  0.314400  1.0  0.1155
  H  H132  1  0.900800  0.287000  0.293800  1.0  0.1205
  H  H133  1  0.967700  0.106500  0.553100  1.0  0.0894
  H  H134  1  0.969200  0.345000  0.512100  1.0  0.097
  H  H135  1  0.063800  0.108000  0.583800  1.0  0.1107
  H  H136  1  0.065700  0.346500  0.536400  1.0  0.1109
  H  H137  1  0.880000  0.064200  0.456000  1.0  0.117
  H  H138  1  0.815700  0.153500  0.598300  1.0  0.0873
  H  H139  1  0.786300  0.019100  0.618800  1.0  0.1126
  H  H140  1  0.844500  0.933300  0.473400  1.0  0.0982
  H  H141  1  0.813900  0.378100  0.479200  1.0  0.0869
  H  H142  1  0.887900  0.272000  0.633900  1.0  0.1022
  H  H143  1  0.857400  0.379200  0.689500  1.0  0.1134
  H  H144  1  0.780800  0.482600  0.533400  1.0  0.0979
  C  C145  1  0.357200  0.258800  0.922200  1.0  -0.2358
  C  C146  1  0.392900  0.233900  0.881900  1.0  -0.0247
  C  C147  1  0.301500  0.269700  0.894300  1.0  -0.0264
  C  C148  1  0.283300  0.261600  0.831400  1.0  -0.0389
  C  C149  1  0.375400  0.226600  0.819200  1.0  -0.0948
  C  C150  1  0.320000  0.239800  0.794700  1.0  -0.1138
  C  C151  1  0.299400  0.230700  0.725700  1.0  0.6703
  C  C152  1  0.457600  0.275700  0.028000  1.0  -0.1895
  C  C153  1  0.487100  0.344400  0.050000  1.0  -0.0437
  C  C154  1  0.488100  0.203800  0.025000  1.0  -0.0454
  C  C155  1  0.545200  0.344100  0.068000  1.0  -0.0621
  C  C156  1  0.546300  0.202300  0.040600  1.0  -0.0641
  C  C157  1  0.575100  0.272600  0.062200  1.0  -0.1387
  C  C158  1  0.637900  0.274300  0.079300  1.0  0.6883
  C  C159  1  0.351000  0.375600  0.026100  1.0  -0.2367
  C  C160  1  0.360200  0.443500  0.988000  1.0  -0.0477
  C  C161  1  0.322700  0.390300  0.073300  1.0  -0.0319
  C  C162  1  0.303700  0.471500  0.085100  1.0  -0.091
  C  C163  1  0.339100  0.522700  0.999000  1.0  -0.028
  C  C164  1  0.311100  0.535400  0.046600  1.0  -0.072
  C  C165  1  0.289800  0.618700  0.058700  1.0  0.718
  C  C166  1  0.352800  0.188400  0.050000  1.0  -0.1677
  C  C167  1  0.322200  0.123100  0.022100  1.0  -0.0283
  C  C168  1  0.366200  0.185700  0.113100  1.0  -0.061
  C  C169  1  0.348100  0.120900  0.146700  1.0  -0.0652
  C  C170  1  0.302900  0.058800  0.054600  1.0  -0.0795
  C  C171  1  0.316000  0.056100  0.116300  1.0  -0.152
  C  C172  1  0.292400  0.986800  0.150300  1.0  0.717
  C  C173  1  0.857200  0.758800  0.922200  1.0  -0.2358
  C  C174  1  0.892900  0.733900  0.881900  1.0  -0.0247
  C  C175  1  0.801500  0.769700  0.894300  1.0  -0.0264
  C  C176  1  0.783300  0.761600  0.831400  1.0  -0.0389
  C  C177  1  0.875400  0.726600  0.819200  1.0  -0.0948
  C  C178  1  0.820000  0.739800  0.794700  1.0  -0.1138
  C  C179  1  0.799400  0.730700  0.725700  1.0  0.6703
  C  C180  1  0.957600  0.775700  0.028000  1.0  -0.1895
  C  C181  1  0.987100  0.844400  0.050000  1.0  -0.0437
  C  C182  1  0.988100  0.703800  0.025000  1.0  -0.0454
  C  C183  1  0.045200  0.844100  0.068000  1.0  -0.0621
  C  C184  1  0.046300  0.702300  0.040600  1.0  -0.0641
  C  C185  1  0.075100  0.772600  0.062200  1.0  -0.1387
  C  C186  1  0.137900  0.774300  0.079300  1.0  0.6883
  C  C187  1  0.851000  0.875600  0.026100  1.0  -0.2367
  C  C188  1  0.860200  0.943500  0.988000  1.0  -0.0477
  C  C189  1  0.822700  0.890300  0.073300  1.0  -0.0319
  C  C190  1  0.803700  0.971500  0.085100  1.0  -0.091
  C  C191  1  0.839100  0.022700  0.999000  1.0  -0.028
  C  C192  1  0.811100  0.035400  0.046600  1.0  -0.072
  C  C193  1  0.789800  0.118700  0.058700  1.0  0.718
  C  C194  1  0.852800  0.688400  0.050000  1.0  -0.1677
  C  C195  1  0.822200  0.623100  0.022100  1.0  -0.0283
  C  C196  1  0.866200  0.685700  0.113100  1.0  -0.061
  C  C197  1  0.848100  0.620900  0.146700  1.0  -0.0652
  C  C198  1  0.802900  0.558800  0.054600  1.0  -0.0795
  C  C199  1  0.816000  0.556100  0.116300  1.0  -0.152
  C  C200  1  0.792400  0.486800  0.150300  1.0  0.717
  C  C201  1  0.642800  0.258800  0.577800  1.0  -0.2337
  C  C202  1  0.607100  0.233900  0.618100  1.0  -0.0263
  C  C203  1  0.698500  0.269700  0.605700  1.0  -0.0293
  C  C204  1  0.716700  0.261600  0.668600  1.0  -0.0394
  C  C205  1  0.624600  0.226600  0.680800  1.0  -0.0953
  C  C206  1  0.680000  0.239800  0.705300  1.0  -0.1154
  C  C207  1  0.700600  0.230700  0.774300  1.0  0.6691
  C  C208  1  0.542400  0.275700  0.472000  1.0  -0.189
  C  C209  1  0.512900  0.344400  0.450000  1.0  -0.0437
  C  C210  1  0.511900  0.203800  0.475000  1.0  -0.0463
  C  C211  1  0.454800  0.344100  0.432000  1.0  -0.0612
  C  C212  1  0.453700  0.202300  0.459400  1.0  -0.0631
  C  C213  1  0.424900  0.272600  0.437800  1.0  -0.1396
  C  C214  1  0.362100  0.274300  0.420700  1.0  0.6892
  C  C215  1  0.649000  0.375600  0.473900  1.0  -0.236
  C  C216  1  0.639800  0.443500  0.512000  1.0  -0.0459
  C  C217  1  0.677300  0.390300  0.426700  1.0  -0.0296
  C  C218  1  0.696300  0.471500  0.414900  1.0  -0.0878
  C  C219  1  0.660900  0.522700  0.501000  1.0  -0.028
  C  C220  1  0.688900  0.535400  0.453400  1.0  -0.0689
  C  C221  1  0.710200  0.618700  0.441300  1.0  0.7194
  C  C222  1  0.647200  0.188400  0.450000  1.0  -0.1675
  C  C223  1  0.677800  0.123100  0.477900  1.0  -0.0269
  C  C224  1  0.633800  0.185700  0.386900  1.0  -0.0611
  C  C225  1  0.651900  0.120900  0.353300  1.0  -0.0658
  C  C226  1  0.697100  0.058800  0.445400  1.0  -0.0805
  C  C227  1  0.684000  0.056100  0.383700  1.0  -0.1511
  C  C228  1  0.707600  0.986800  0.349700  1.0  0.715
  C  C229  1  0.142800  0.758800  0.577800  1.0  -0.2337
  C  C230  1  0.107100  0.733900  0.618100  1.0  -0.0263
  C  C231  1  0.198500  0.769700  0.605700  1.0  -0.0293
  C  C232  1  0.216700  0.761600  0.668600  1.0  -0.0394
  C  C233  1  0.124600  0.726600  0.680800  1.0  -0.0953
  C  C234  1  0.180000  0.739800  0.705300  1.0  -0.1154
  C  C235  1  0.200600  0.730700  0.774300  1.0  0.6691
  C  C236  1  0.042400  0.775700  0.472000  1.0  -0.189
  C  C237  1  0.012900  0.844400  0.450000  1.0  -0.0437
  C  C238  1  0.011900  0.703800  0.475000  1.0  -0.0463
  C  C239  1  0.954800  0.844100  0.432000  1.0  -0.0612
  C  C240  1  0.953700  0.702300  0.459400  1.0  -0.0631
  C  C241  1  0.924900  0.772600  0.437800  1.0  -0.1396
  C  C242  1  0.862100  0.774300  0.420700  1.0  0.6892
  C  C243  1  0.149000  0.875600  0.473900  1.0  -0.236
  C  C244  1  0.139800  0.943500  0.512000  1.0  -0.0459
  C  C245  1  0.177300  0.890300  0.426700  1.0  -0.0296
  C  C246  1  0.196300  0.971500  0.414900  1.0  -0.0878
  C  C247  1  0.160900  0.022700  0.501000  1.0  -0.028
  C  C248  1  0.188900  0.035400  0.453400  1.0  -0.0689
  C  C249  1  0.210200  0.118700  0.441300  1.0  0.7194
  C  C250  1  0.147200  0.688400  0.450000  1.0  -0.1675
  C  C251  1  0.177800  0.623100  0.477900  1.0  -0.0269
  C  C252  1  0.133800  0.685700  0.386900  1.0  -0.0611
  C  C253  1  0.151900  0.620900  0.353300  1.0  -0.0658
  C  C254  1  0.197100  0.558800  0.445400  1.0  -0.0805
  C  C255  1  0.184000  0.556100  0.383700  1.0  -0.1511
  C  C256  1  0.207600  0.486800  0.349700  1.0  0.715
  C  C257  1  0.642800  0.741200  0.077800  1.0  -0.2343
  C  C258  1  0.607100  0.766100  0.118100  1.0  -0.0263
  C  C259  1  0.698500  0.730300  0.105700  1.0  -0.0298
  C  C260  1  0.716700  0.738400  0.168600  1.0  -0.0394
  C  C261  1  0.624600  0.773400  0.180800  1.0  -0.097
  C  C262  1  0.680000  0.760200  0.205300  1.0  -0.1152
  C  C263  1  0.700600  0.769300  0.274300  1.0  0.6691
  C  C264  1  0.542400  0.724300  0.972000  1.0  -0.1888
  C  C265  1  0.512900  0.655600  0.950000  1.0  -0.0434
  C  C266  1  0.511900  0.796200  0.975000  1.0  -0.0461
  C  C267  1  0.454800  0.655900  0.932000  1.0  -0.0614
  C  C268  1  0.453700  0.797700  0.959400  1.0  -0.0634
  C  C269  1  0.424900  0.727400  0.937800  1.0  -0.1384
  C  C270  1  0.362100  0.725700  0.920700  1.0  0.6889
  C  C271  1  0.649000  0.624400  0.973900  1.0  -0.2354
  C  C272  1  0.639800  0.556500  0.012000  1.0  -0.0462
  C  C273  1  0.677300  0.609700  0.926700  1.0  -0.0296
  C  C274  1  0.696300  0.528500  0.914900  1.0  -0.0879
  C  C275  1  0.660900  0.477300  0.001000  1.0  -0.0278
  C  C276  1  0.688900  0.464600  0.953400  1.0  -0.0732
  C  C277  1  0.710200  0.381300  0.941300  1.0  0.7184
  C  C278  1  0.647200  0.811600  0.950000  1.0  -0.1686
  C  C279  1  0.677800  0.876900  0.977900  1.0  -0.0257
  C  C280  1  0.633800  0.814300  0.886900  1.0  -0.0611
  C  C281  1  0.651900  0.879100  0.853300  1.0  -0.0675
  C  C282  1  0.697100  0.941200  0.945400  1.0  -0.0803
  C  C283  1  0.684000  0.943900  0.883700  1.0  -0.1508
  C  C284  1  0.707600  0.013200  0.849700  1.0  0.7151
  C  C285  1  0.142800  0.241200  0.077800  1.0  -0.2343
  C  C286  1  0.107100  0.266100  0.118100  1.0  -0.0263
  C  C287  1  0.198500  0.230300  0.105700  1.0  -0.0298
  C  C288  1  0.216700  0.238400  0.168600  1.0  -0.0394
  C  C289  1  0.124600  0.273400  0.180800  1.0  -0.097
  C  C290  1  0.180000  0.260200  0.205300  1.0  -0.1152
  C  C291  1  0.200600  0.269300  0.274300  1.0  0.6691
  C  C292  1  0.042400  0.224300  0.972000  1.0  -0.1888
  C  C293  1  0.012900  0.155600  0.950000  1.0  -0.0434
  C  C294  1  0.011900  0.296200  0.975000  1.0  -0.0461
  C  C295  1  0.954800  0.155900  0.932000  1.0  -0.0614
  C  C296  1  0.953700  0.297700  0.959400  1.0  -0.0634
  C  C297  1  0.924900  0.227400  0.937800  1.0  -0.1384
  C  C298  1  0.862100  0.225700  0.920700  1.0  0.6889
  C  C299  1  0.149000  0.124400  0.973900  1.0  -0.2354
  C  C300  1  0.139800  0.056500  0.012000  1.0  -0.0462
  C  C301  1  0.177300  0.109700  0.926700  1.0  -0.0296
  C  C302  1  0.196300  0.028500  0.914900  1.0  -0.0879
  C  C303  1  0.160900  0.977300  0.001000  1.0  -0.0278
  C  C304  1  0.188900  0.964600  0.953400  1.0  -0.0732
  C  C305  1  0.210200  0.881300  0.941300  1.0  0.7184
  C  C306  1  0.147200  0.311600  0.950000  1.0  -0.1686
  C  C307  1  0.177800  0.376900  0.977900  1.0  -0.0257
  C  C308  1  0.133800  0.314300  0.886900  1.0  -0.0611
  C  C309  1  0.151900  0.379100  0.853300  1.0  -0.0675
  C  C310  1  0.197100  0.441200  0.945400  1.0  -0.0803
  C  C311  1  0.184000  0.443900  0.883700  1.0  -0.1508
  C  C312  1  0.207600  0.513200  0.849700  1.0  0.7151
  C  C313  1  0.357200  0.741200  0.422200  1.0  -0.236
  C  C314  1  0.392900  0.766100  0.381900  1.0  -0.0247
  C  C315  1  0.301500  0.730300  0.394300  1.0  -0.0265
  C  C316  1  0.283300  0.738400  0.331400  1.0  -0.0387
  C  C317  1  0.375400  0.773400  0.319200  1.0  -0.0956
  C  C318  1  0.320000  0.760200  0.294700  1.0  -0.1134
  C  C319  1  0.299400  0.769300  0.225700  1.0  0.6703
  C  C320  1  0.457600  0.724300  0.528000  1.0  -0.1892
  C  C321  1  0.487100  0.655600  0.550000  1.0  -0.0436
  C  C322  1  0.488100  0.796200  0.525000  1.0  -0.0452
  C  C323  1  0.545200  0.655900  0.568000  1.0  -0.0618
  C  C324  1  0.546300  0.797700  0.540600  1.0  -0.0637
  C  C325  1  0.575100  0.727400  0.562200  1.0  -0.1384
  C  C326  1  0.637900  0.725700  0.579300  1.0  0.688
  C  C327  1  0.351000  0.624400  0.526100  1.0  -0.2356
  C  C328  1  0.360200  0.556500  0.488000  1.0  -0.048
  C  C329  1  0.322700  0.609700  0.573300  1.0  -0.0313
  C  C330  1  0.303700  0.528500  0.585100  1.0  -0.0899
  C  C331  1  0.339100  0.477300  0.499000  1.0  -0.0278
  C  C332  1  0.311100  0.464600  0.546600  1.0  -0.0723
  C  C333  1  0.289800  0.381300  0.558700  1.0  0.7181
  C  C334  1  0.352800  0.811600  0.550000  1.0  -0.1692
  C  C335  1  0.322200  0.876900  0.522100  1.0  -0.0287
  C  C336  1  0.366200  0.814300  0.613100  1.0  -0.0614
  C  C337  1  0.348100  0.879100  0.646700  1.0  -0.0644
  C  C338  1  0.302900  0.941200  0.554600  1.0  -0.0787
  C  C339  1  0.316000  0.943900  0.616300  1.0  -0.1534
  C  C340  1  0.292400  0.013200  0.650300  1.0  0.7164
  C  C341  1  0.857200  0.241200  0.422200  1.0  -0.236
  C  C342  1  0.892900  0.266100  0.381900  1.0  -0.0247
  C  C343  1  0.801500  0.230300  0.394300  1.0  -0.0265
  C  C344  1  0.783300  0.238400  0.331400  1.0  -0.0387
  C  C345  1  0.875400  0.273400  0.319200  1.0  -0.0956
  C  C346  1  0.820000  0.260200  0.294700  1.0  -0.1134
  C  C347  1  0.799400  0.269300  0.225700  1.0  0.6703
  C  C348  1  0.957600  0.224300  0.528000  1.0  -0.1892
  C  C349  1  0.987100  0.155600  0.550000  1.0  -0.0436
  C  C350  1  0.988100  0.296200  0.525000  1.0  -0.0452
  C  C351  1  0.045200  0.155900  0.568000  1.0  -0.0618
  C  C352  1  0.046300  0.297700  0.540600  1.0  -0.0637
  C  C353  1  0.075100  0.227400  0.562200  1.0  -0.1384
  C  C354  1  0.137900  0.225700  0.579300  1.0  0.688
  C  C355  1  0.851000  0.124400  0.526100  1.0  -0.2356
  C  C356  1  0.860200  0.056500  0.488000  1.0  -0.048
  C  C357  1  0.822700  0.109700  0.573300  1.0  -0.0313
  C  C358  1  0.803700  0.028500  0.585100  1.0  -0.0899
  C  C359  1  0.839100  0.977300  0.499000  1.0  -0.0278
  C  C360  1  0.811100  0.964600  0.546600  1.0  -0.0723
  C  C361  1  0.789800  0.881300  0.558700  1.0  0.7181
  C  C362  1  0.852800  0.311600  0.550000  1.0  -0.1692
  C  C363  1  0.822200  0.376900  0.522100  1.0  -0.0287
  C  C364  1  0.866200  0.314300  0.613100  1.0  -0.0614
  C  C365  1  0.848100  0.379100  0.646700  1.0  -0.0644
  C  C366  1  0.802900  0.441200  0.554600  1.0  -0.0787
  C  C367  1  0.816000  0.443900  0.616300  1.0  -0.1534
  C  C368  1  0.792400  0.513200  0.650300  1.0  0.7164
  O  O369  1  0.334200  0.216600  0.690600  1.0  -0.6726
  O  O370  1  0.248100  0.237900  0.704700  1.0  -0.6611
  O  O371  1  0.665160  0.211300  0.065300  1.0  -0.6825
  O  O372  1  0.661380  0.336200  0.106700  1.0  -0.6608
  O  O373  1  0.283000  0.639000  0.112100  1.0  -0.7008
  O  O374  1  0.277100  0.670300  0.013800  1.0  -0.8189
  O  O375  1  0.300200  0.994900  0.209500  1.0  -0.4869
  O  O376  1  0.267200  0.929200  0.123000  1.0  -0.6891
  O  O377  1  0.834200  0.716600  0.690600  1.0  -0.6726
  O  O378  1  0.748100  0.737900  0.704700  1.0  -0.6613
  O  O379  1  0.165160  0.711300  0.065300  1.0  -0.6825
  O  O380  1  0.161380  0.836200  0.106700  1.0  -0.661
  O  O381  1  0.783000  0.139000  0.112100  1.0  -0.7008
  O  O382  1  0.777100  0.170300  0.013800  1.0  -0.8189
  O  O383  1  0.800200  0.494900  0.209500  1.0  -0.4869
  O  O384  1  0.767200  0.429200  0.123000  1.0  -0.6891
  O  O385  1  0.665800  0.216600  0.809400  1.0  -0.6726
  O  O386  1  0.751900  0.237900  0.795300  1.0  -0.6628
  O  O387  1  0.334840  0.211300  0.434700  1.0  -0.6849
  O  O388  1  0.338620  0.336200  0.393300  1.0  -0.6595
  O  O389  1  0.717000  0.639000  0.387900  1.0  -0.7006
  O  O390  1  0.722900  0.670300  0.486200  1.0  -0.8186
  O  O391  1  0.699800  0.994900  0.290500  1.0  -0.4897
  O  O392  1  0.732800  0.929200  0.377000  1.0  -0.69
  O  O393  1  0.165800  0.716600  0.809400  1.0  -0.6726
  O  O394  1  0.251900  0.737900  0.795300  1.0  -0.663
  O  O395  1  0.834840  0.711300  0.434700  1.0  -0.6849
  O  O396  1  0.838620  0.836200  0.393300  1.0  -0.6597
  O  O397  1  0.217000  0.139000  0.387900  1.0  -0.7006
  O  O398  1  0.222900  0.170300  0.486200  1.0  -0.8186
  O  O399  1  0.199800  0.494900  0.290500  1.0  -0.4897
  O  O400  1  0.232800  0.429200  0.377000  1.0  -0.69
  O  O401  1  0.665800  0.783400  0.309400  1.0  -0.6748
  O  O402  1  0.751900  0.762100  0.295300  1.0  -0.6629
  O  O403  1  0.334840  0.788700  0.934700  1.0  -0.6878
  O  O404  1  0.338620  0.663800  0.893300  1.0  -0.6601
  O  O405  1  0.717000  0.361000  0.887900  1.0  -0.7008
  O  O406  1  0.722900  0.329700  0.986200  1.0  -0.8204
  O  O407  1  0.699800  0.005100  0.790500  1.0  -0.4907
  O  O408  1  0.732800  0.070800  0.877000  1.0  -0.6902
  O  O409  1  0.165800  0.283400  0.309400  1.0  -0.6748
  O  O410  1  0.251900  0.262100  0.295300  1.0  -0.664
  O  O411  1  0.834840  0.288700  0.934700  1.0  -0.6878
  O  O412  1  0.838620  0.163800  0.893300  1.0  -0.66
  O  O413  1  0.217000  0.861000  0.887900  1.0  -0.7008
  O  O414  1  0.222900  0.829700  0.986200  1.0  -0.8204
  O  O415  1  0.199800  0.505100  0.790500  1.0  -0.4907
  O  O416  1  0.232800  0.570800  0.877000  1.0  -0.6902
  O  O417  1  0.334200  0.783400  0.190600  1.0  -0.6751
  O  O418  1  0.248100  0.762100  0.204700  1.0  -0.6619
  O  O419  1  0.665160  0.788700  0.565300  1.0  -0.6865
  O  O420  1  0.661380  0.663800  0.606700  1.0  -0.6615
  O  O421  1  0.283000  0.361000  0.612100  1.0  -0.701
  O  O422  1  0.277100  0.329700  0.513800  1.0  -0.8204
  O  O423  1  0.300200  0.005100  0.709500  1.0  -0.4879
  O  O424  1  0.267200  0.070800  0.623000  1.0  -0.6896
  O  O425  1  0.834200  0.283400  0.190600  1.0  -0.6751
  O  O426  1  0.748100  0.262100  0.204700  1.0  -0.663
  O  O427  1  0.165160  0.288700  0.565300  1.0  -0.6865
  O  O428  1  0.161380  0.163800  0.606700  1.0  -0.6614
  O  O429  1  0.783000  0.861000  0.612100  1.0  -0.701
  O  O430  1  0.777100  0.829700  0.513800  1.0  -0.8204
  O  O431  1  0.800200  0.505100  0.709500  1.0  -0.4879
  O  O432  1  0.767200  0.570800  0.623000  1.0  -0.6896
