# generated using pymatgen
data_Pr3Si2H32C56NO19
_symmetry_space_group_name_H-M   'P 1'
_cell_length_a   14.16800000
_cell_length_b   15.09100000
_cell_length_c   22.75200000
_cell_angle_alpha   85.33300000
_cell_angle_beta   75.13000000
_cell_angle_gamma   69.42600000
_symmetry_Int_Tables_number   1
_chemical_formula_structural   Pr3Si2H32C56NO19
_chemical_formula_sum   'Pr6 Si4 H64 C112 N2 O38'
_cell_volume   4401.59045529
_cell_formula_units_Z   2
loop_
 _symmetry_equiv_pos_site_id
 _symmetry_equiv_pos_as_xyz
  1  'x, y, z'
loop_
 _atom_site_type_symbol
 _atom_site_label
 _atom_site_symmetry_multiplicity
 _atom_site_fract_x
 _atom_site_fract_y
 _atom_site_fract_z
 _atom_site_occupancy
 _atom_site_charge
  Pr  Pr1  1  0.068710  0.167610  0.797860  1.0  1.9731
  Pr  Pr2  1  0.805550  0.204360  0.729800  1.0  2.2358
  Pr  Pr3  1  0.931290  0.832390  0.202140  1.0  1.9704
  Pr  Pr4  1  0.458000  0.288710  0.695910  1.0  2.1458
  Pr  Pr5  1  0.542000  0.711290  0.304090  1.0  2.1479
  Pr  Pr6  1  0.194450  0.795640  0.270200  1.0  2.2457
  Si  Si7  1  0.141890  0.327410  0.392370  1.0  0.9009
  Si  Si8  1  0.668690  0.789830  0.893060  1.0  0.9083
  Si  Si9  1  0.331310  0.210170  0.106940  1.0  0.9081
  Si  Si10  1  0.858110  0.672590  0.607630  1.0  0.9007
  H  H11  1  0.299300  0.132600  0.003300  1.0  0.0859
  H  H12  1  0.398700  0.010200  0.360200  1.0  0.1185
  H  H13  1  0.363300  0.315100  0.342800  1.0  0.0719
  H  H14  1  0.119700  0.217600  0.296000  1.0  0.0906
  H  H15  1  0.545600  0.586900  0.680900  1.0  0.1256
  H  H16  1  0.453900  0.344900  0.913600  1.0  0.1119
  H  H17  1  0.273700  0.909300  0.135900  1.0  0.1375
  H  H18  1  0.006700  0.807500  0.421200  1.0  0.1286
  H  H19  1  0.634000  0.677600  0.803700  1.0  0.1062
  H  H20  1  0.921400  0.469600  0.863500  1.0  0.1167
  H  H21  1  0.631200  0.993100  0.887000  1.0  0.1002
  H  H22  1  0.185800  0.635400  0.373400  1.0  0.1171
  H  H23  1  0.419300  0.326600  0.017600  1.0  0.0947
  H  H24  1  0.918700  0.395700  0.451300  1.0  0.0973
  H  H25  1  0.609300  0.861400  0.779800  1.0  0.0898
  H  H26  1  0.366000  0.322400  0.196300  1.0  0.1065
  H  H27  1  0.080200  0.414700  0.281600  1.0  0.091
  H  H28  1  0.069200  0.494600  0.745200  1.0  0.1061
  H  H29  1  0.301000  0.474900  0.227500  1.0  0.0976
  H  H30  1  0.726300  0.090700  0.864100  1.0  0.1363
  H  H31  1  0.390700  0.138600  0.220200  1.0  0.0911
  H  H32  1  0.993300  0.192500  0.578800  1.0  0.1286
  H  H33  1  0.808100  0.621900  0.499700  1.0  0.095
  H  H34  1  0.601300  0.989800  0.639800  1.0  0.1181
  H  H35  1  0.671300  0.847800  0.099900  1.0  0.1005
  H  H36  1  0.008700  0.134900  0.168000  1.0  0.1258
  H  H37  1  0.765900  0.480500  0.422500  1.0  0.1061
  H  H38  1  0.150400  0.375500  0.101200  1.0  0.098
  H  H39  1  0.700700  0.867400  0.996700  1.0  0.0861
  H  H40  1  0.919800  0.585300  0.718400  1.0  0.0936
  H  H41  1  0.901400  0.472600  0.601800  1.0  0.0925
  H  H42  1  0.081300  0.604300  0.548700  1.0  0.0969
  H  H43  1  0.930800  0.505400  0.254800  1.0  0.1061
  H  H44  1  0.546100  0.655100  0.086400  1.0  0.1112
  H  H45  1  0.880300  0.782400  0.704000  1.0  0.0911
  H  H46  1  0.991300  0.865100  0.832000  1.0  0.121
  H  H47  1  0.167500  0.336400  0.601200  1.0  0.0835
  H  H48  1  0.106100  0.236400  0.149900  1.0  0.0929
  H  H49  1  0.234100  0.519500  0.577500  1.0  0.106
  H  H50  1  0.812000  0.935900  0.735800  1.0  0.0973
  H  H51  1  0.188000  0.064100  0.264200  1.0  0.0979
  H  H52  1  0.098600  0.527400  0.398200  1.0  0.0925
  H  H53  1  0.636700  0.684900  0.657200  1.0  0.0728
  H  H54  1  0.324500  0.166200  0.396300  1.0  0.101
  H  H55  1  0.814200  0.364600  0.626600  1.0  0.1178
  H  H56  1  0.444700  0.874600  0.953000  1.0  0.0992
  H  H57  1  0.454400  0.413100  0.319100  1.0  0.1247
  H  H58  1  0.368800  0.006900  0.113000  1.0  0.0992
  H  H59  1  0.191900  0.378100  0.500300  1.0  0.0958
  H  H60  1  0.580700  0.673400  0.982400  1.0  0.0944
  H  H61  1  0.078600  0.530400  0.136500  1.0  0.1159
  H  H62  1  0.328700  0.152200  0.900100  1.0  0.1007
  H  H63  1  0.701600  0.026900  0.076900  1.0  0.1086
  H  H64  1  0.555300  0.125400  0.047000  1.0  0.1012
  H  H65  1  0.298400  0.973100  0.923100  1.0  0.1088
  H  H66  1  0.465400  0.960100  0.751700  1.0  0.112
  H  H67  1  0.832500  0.663600  0.398800  1.0  0.0838
  H  H68  1  0.699000  0.525100  0.772500  1.0  0.0976
  H  H69  1  0.893900  0.763600  0.850100  1.0  0.0928
  H  H70  1  0.849600  0.624500  0.898800  1.0  0.0991
  H  H71  1  0.675500  0.833800  0.603700  1.0  0.1005
  H  H72  1  0.030200  0.225000  0.474900  1.0  0.0833
  H  H73  1  0.969800  0.775000  0.525100  1.0  0.0835
  H  H74  1  0.534600  0.039900  0.248300  1.0  0.1119
  C  C75  1  0.818000  0.479900  0.813600  1.0  -0.191
  C  C76  1  0.358900  0.226000  0.021000  1.0  -0.0958
  C  C77  1  0.858100  0.377600  0.792600  1.0  0.7328
  C  C78  1  0.731300  0.951600  0.181400  1.0  0.7121
  C  C79  1  0.819200  0.604500  0.873100  1.0  -0.0521
  C  C80  1  0.751500  0.864100  0.870700  1.0  -0.2056
  C  C81  1  0.577100  0.698900  0.068500  1.0  -0.0595
  C  C82  1  0.928000  0.483400  0.294400  1.0  -0.0506
  C  C83  1  0.690300  0.635700  0.817000  1.0  -0.0475
  C  C84  1  0.825800  0.823900  0.689000  1.0  -0.0462
  C  C85  1  0.224200  0.404800  0.372300  1.0  -0.1327
  C  C86  1  0.080900  0.110400  0.157700  1.0  -0.0986
  C  C87  1  0.240900  0.974600  0.137600  1.0  -0.2022
  C  C88  1  0.704300  0.853900  0.630200  1.0  -0.0474
  C  C89  1  0.072000  0.516600  0.705600  1.0  -0.0493
  C  C90  1  0.174200  0.176100  0.311000  1.0  -0.0491
  C  C91  1  0.341600  0.051900  0.347600  1.0  -0.0481
  C  C92  1  0.402500  0.289600  0.993900  1.0  -0.0306
  C  C93  1  0.296700  0.033100  0.124900  1.0  -0.051
  C  C94  1  0.919100  0.889600  0.842300  1.0  -0.0972
  C  C95  1  0.182000  0.520100  0.186400  1.0  -0.1858
  C  C96  1  0.397400  0.247700  0.896000  1.0  -0.1013
  C  C97  1  0.862100  0.685900  0.423800  1.0  -0.0899
  C  C98  1  0.014800  0.393900  0.369700  1.0  -0.246
  C  C99  1  0.934500  0.765500  0.334600  1.0  0.7241
  C  C100  1  0.730500  0.545100  0.797400  1.0  -0.0304
  C  C101  1  0.081100  0.260700  0.599700  1.0  -0.1046
  C  C102  1  0.017000  0.429000  0.310400  1.0  -0.0464
  C  C103  1  0.346800  0.920800  0.287100  1.0  0.6811
  C  C104  1  0.783200  0.915200  0.709600  1.0  -0.0933
  C  C105  1  0.668700  0.824400  0.014800  1.0  -0.0266
  C  C106  1  0.326700  0.379500  0.349300  1.0  -0.0419
  C  C107  1  0.036200  0.227700  0.562800  1.0  -0.1317
  C  C108  1  0.167100  0.493800  0.662700  1.0  -0.1306
  C  C109  1  0.453200  0.116700  0.190900  1.0  -0.0366
  C  C110  1  0.216800  0.084800  0.290400  1.0  -0.0905
  C  C111  1  0.422900  0.301100  0.931500  1.0  -0.0597
  C  C112  1  0.921400  0.416200  0.411500  1.0  -0.0548
  C  C113  1  0.597500  0.710400  0.006100  1.0  -0.0325
  C  C114  1  0.918900  0.739300  0.400300  1.0  -0.1031
  C  C115  1  0.942300  0.750900  0.499700  1.0  -0.0275
  C  C116  1  0.759100  0.025400  0.862400  1.0  -0.2001
  C  C117  1  0.673300  0.620500  0.650700  1.0  -0.0462
  C  C118  1  0.267500  0.331700  0.142790  1.0  -0.316
  C  C119  1  0.137900  0.314100  0.576200  1.0  -0.0869
  C  C120  1  0.658400  0.948100  0.652400  1.0  -0.0454
  C  C121  1  0.116400  0.303000  0.475600  1.0  -0.1485
  C  C122  1  0.544000  0.854500  0.869700  1.0  -0.3218
  C  C123  1  0.065500  0.234500  0.665400  1.0  0.7233
  C  C124  1  0.703300  0.966900  0.875100  1.0  -0.052
  C  C125  1  0.309700  0.364300  0.183000  1.0  -0.0454
  C  C126  1  0.832900  0.506200  0.337300  1.0  -0.1276
  C  C127  1  0.928000  0.050200  0.832100  1.0  0.6532
  C  C128  1  0.638600  0.049900  0.105700  1.0  -0.0195
  C  C129  1  0.137000  0.489100  0.147900  1.0  -0.0598
  C  C130  1  0.414400  0.261500  0.828700  1.0  0.6859
  C  C131  1  0.132400  0.014700  0.153200  1.0  -0.0704
  C  C132  1  0.331100  0.536300  0.342300  1.0  -0.1334
  C  C133  1  0.653200  0.079200  0.712900  1.0  0.6802
  C  C134  1  0.632800  0.025100  0.165400  1.0  -0.1545
  C  C135  1  0.668900  0.463700  0.657700  1.0  -0.1352
  C  C136  1  0.863000  0.510900  0.852100  1.0  -0.0618
  C  C137  1  0.732800  0.570700  0.321600  1.0  0.7213
  C  C138  1  0.267200  0.429300  0.678400  1.0  0.7218
  C  C139  1  0.180800  0.395500  0.126900  1.0  -0.0527
  C  C140  1  0.367200  0.974900  0.834600  1.0  -0.1534
  C  C141  1  0.141900  0.622400  0.207400  1.0  0.7364
  C  C142  1  0.845600  0.662100  0.485100  1.0  -0.0279
  C  C143  1  0.078600  0.583800  0.588500  1.0  -0.054
  C  C144  1  0.170100  0.505500  0.381800  1.0  -0.0533
  C  C145  1  0.859800  0.828700  0.853900  1.0  -0.041
  C  C146  1  0.612300  0.397800  0.677200  1.0  0.7006
  C  C147  1  0.698100  0.976900  0.691900  1.0  -0.0495
  C  C148  1  0.778100  0.429100  0.632900  1.0  -0.1638
  C  C149  1  0.983000  0.571000  0.689600  1.0  -0.0504
  C  C150  1  0.461000  0.942000  0.792100  1.0  -0.0731
  C  C151  1  0.963800  0.772300  0.437200  1.0  -0.1257
  C  C152  1  0.617300  0.562300  0.665600  1.0  -0.1387
  C  C153  1  0.539000  0.058000  0.207900  1.0  -0.0801
  C  C154  1  0.382700  0.437700  0.334400  1.0  -0.1335
  C  C155  1  0.057700  0.249100  0.500300  1.0  -0.0279
  C  C156  1  0.732500  0.668300  0.857210  1.0  -0.3089
  C  C157  1  0.775800  0.595200  0.627700  1.0  -0.1334
  C  C158  1  0.208700  0.209300  0.352970  1.0  -0.1794
  C  C159  1  0.867600  0.985300  0.846800  1.0  -0.0665
  C  C160  1  0.791300  0.790700  0.647030  1.0  -0.1791
  C  C161  1  0.641100  0.774000  0.979000  1.0  -0.0951
  C  C162  1  0.883600  0.697000  0.524400  1.0  -0.1493
  C  C163  1  0.248500  0.135900  0.129300  1.0  -0.208
  C  C164  1  0.301900  0.023100  0.308100  1.0  -0.0519
  C  C165  1  0.829700  0.469700  0.394600  1.0  -0.0513
  C  C166  1  0.361400  0.950100  0.894300  1.0  -0.0224
  C  C167  1  0.985200  0.606100  0.630300  1.0  -0.2447
  C  C168  1  0.456000  0.145500  0.130300  1.0  -0.3267
  C  C169  1  0.387700  0.602200  0.322800  1.0  0.7
  C  C170  1  0.221900  0.570900  0.367100  1.0  -0.1659
  C  C171  1  0.449300  0.890500  0.912300  1.0  -0.0253
  C  C172  1  0.349400  0.186700  0.923300  1.0  -0.0964
  C  C173  1  0.585600  0.738500  0.171300  1.0  0.6855
  C  C174  1  0.269500  0.454900  0.202600  1.0  -0.022
  C  C175  1  0.650600  0.813300  0.076700  1.0  -0.096
  C  C176  1  0.546800  0.883300  0.809100  1.0  -0.0383
  C  C177  1  0.602600  0.752300  0.104000  1.0  -0.1023
  C  C178  1  0.154400  0.337900  0.514900  1.0  -0.0274
  C  C179  1  0.829900  0.494500  0.618200  1.0  -0.0522
  C  C180  1  0.268700  0.048400  0.818600  1.0  0.7107
  C  C181  1  0.331300  0.175600  0.985200  1.0  -0.0289
  C  C182  1  0.550700  0.109500  0.087700  1.0  -0.0245
  C  C183  1  0.170300  0.530300  0.605400  1.0  -0.0501
  C  C184  1  0.140200  0.171300  0.146100  1.0  -0.0428
  C  C185  1  0.295700  0.146100  0.369800  1.0  -0.0449
  C  C186  1  0.072000  0.949800  0.167900  1.0  0.6546
  N  N187  1  0.084700  0.941200  0.361300  1.0  0.4803
  N  N188  1  0.915300  0.058800  0.638700  1.0  0.4805
  O  O189  1  0.528200  0.691900  0.197480  1.0  -0.6797
  O  O190  1  0.189800  0.078400  0.860740  1.0  -0.6384
  O  O191  1  0.342700  0.687000  0.312380  1.0  -0.7498
  O  O192  1  0.065800  0.956600  0.312650  1.0  -0.5539
  O  O193  1  0.515000  0.427100  0.683160  1.0  -0.6344
  O  O194  1  0.846400  0.137800  0.625120  1.0  -0.688
  O  O195  1  0.015100  0.786800  0.309810  1.0  -0.7792
  O  O196  1  0.153600  0.862200  0.374880  1.0  -0.6872
  O  O197  1  0.730300  0.929900  0.234880  1.0  -0.6455
  O  O198  1  0.194400  0.648600  0.231340  1.0  -0.6888
  O  O199  1  0.569100  0.127600  0.698170  1.0  -0.7168
  O  O200  1  0.127800  0.237500  0.695160  1.0  -0.7277
  O  O201  1  0.625500  0.773200  0.202140  1.0  -0.6381
  O  O202  1  0.872200  0.762500  0.304840  1.0  -0.729
  O  O203  1  0.805600  0.351400  0.768660  1.0  -0.687
  O  O204  1  0.934200  0.043400  0.687350  1.0  -0.5539
  O  O205  1  0.300000  0.889900  0.258940  1.0  -0.7094
  O  O206  1  0.471800  0.308100  0.802520  1.0  -0.6802
  O  O207  1  0.017400  0.023800  0.845200  1.0  -0.6589
  O  O208  1  0.344800  0.399500  0.634910  1.0  -0.6629
  O  O209  1  0.053100  0.671400  0.199110  1.0  -0.7803
  O  O210  1  0.267300  0.400200  0.730410  1.0  -0.6569
  O  O211  1  0.955300  0.997200  0.586600  1.0  -0.5548
  O  O212  1  0.894600  0.132200  0.808220  1.0  -0.7432
  O  O213  1  0.105400  0.867800  0.191780  1.0  -0.7439
  O  O214  1  0.044700  0.002800  0.413400  1.0  -0.5543
  O  O215  1  0.984900  0.213200  0.690190  1.0  -0.7767
  O  O216  1  0.269700  0.070100  0.765120  1.0  -0.6427
  O  O217  1  0.946900  0.328600  0.800890  1.0  -0.7807
  O  O218  1  0.655200  0.600500  0.365090  1.0  -0.6605
  O  O219  1  0.430900  0.872400  0.301830  1.0  -0.7158
  O  O220  1  0.732700  0.599800  0.269590  1.0  -0.6598
  O  O221  1  0.485000  0.572900  0.316840  1.0  -0.6375
  O  O222  1  0.657300  0.313000  0.687620  1.0  -0.7508
  O  O223  1  0.700000  0.110100  0.741060  1.0  -0.7101
  O  O224  1  0.374500  0.226800  0.797860  1.0  -0.6358
  O  O225  1  0.982600  0.976200  0.154800  1.0  -0.6628
  O  O226  1  0.810200  0.921600  0.139260  1.0  -0.6408
