# generated using pymatgen
data_CdH18C26(NO2)2
_symmetry_space_group_name_H-M   'P 1'
_cell_length_a   14.05000000
_cell_length_b   16.34880000
_cell_length_c   16.60200000
_cell_angle_alpha   105.88100000
_cell_angle_beta   90.00000000
_cell_angle_gamma   115.44800000
_symmetry_Int_Tables_number   1
_chemical_formula_structural   CdH18C26(NO2)2
_chemical_formula_sum   'Cd4 H72 C104 N8 O16'
_cell_volume   3281.56520299
_cell_formula_units_Z   4
loop_
 _symmetry_equiv_pos_site_id
 _symmetry_equiv_pos_as_xyz
  1  'x, y, z'
loop_
 _atom_site_type_symbol
 _atom_site_label
 _atom_site_symmetry_multiplicity
 _atom_site_fract_x
 _atom_site_fract_y
 _atom_site_fract_z
 _atom_site_occupancy
 _atom_site_charge
  Cd  Cd1  1  0.045940  0.558380  0.911340  1.0  0.9698
  Cd  Cd2  1  0.487560  0.441620  0.588660  1.0  0.9699
  Cd  Cd3  1  0.954060  0.441620  0.088660  1.0  0.9698
  Cd  Cd4  1  0.512440  0.558380  0.411340  1.0  0.9697
  H  H5  1  0.249100  0.334400  0.487200  1.0  0.0743
  H  H6  1  0.345200  0.544800  0.199700  1.0  0.0791
  H  H7  1  0.085300  0.334400  0.987200  1.0  0.0743
  H  H8  1  0.748600  0.665400  0.010000  1.0  0.115
  H  H9  1  0.078800  0.757400  0.292000  1.0  0.1034
  H  H10  1  0.308100  0.979800  0.616500  1.0  0.1118
  H  H11  1  0.372300  0.226400  0.434800  1.0  0.0769
  H  H12  1  0.758500  0.319400  0.451200  1.0  0.1347
  H  H13  1  0.321400  0.242600  0.208000  1.0  0.1034
  H  H14  1  0.921200  0.242600  0.708000  1.0  0.1038
  H  H15  1  0.660700  0.860000  0.147700  1.0  0.1257
  H  H16  1  0.391100  0.273200  0.805800  1.0  0.0918
  H  H17  1  0.439100  0.680600  0.048800  1.0  0.1347
  H  H18  1  0.750500  0.114000  0.071100  1.0  0.1053
  H  H19  1  0.671700  0.979800  0.116500  1.0  0.111
  H  H20  1  0.339300  0.140000  0.852300  1.0  0.1248
  H  H21  1  0.654800  0.455200  0.800300  1.0  0.0796
  H  H22  1  0.357800  0.464000  0.836100  1.0  0.0962
  H  H23  1  0.251400  0.334600  0.990000  1.0  0.1152
  H  H24  1  0.395500  0.663600  0.532100  1.0  0.0728
  H  H25  1  0.893800  0.536000  0.663900  1.0  0.0959
  H  H26  1  0.916800  0.665400  0.510000  1.0  0.1146
  H  H27  1  0.750900  0.665600  0.512800  1.0  0.075
  H  H28  1  0.199300  0.860000  0.647700  1.0  0.1259
  H  H29  1  0.810400  0.544200  0.180100  1.0  0.1084
  H  H30  1  0.185300  0.543600  0.195400  1.0  0.0916
  H  H31  1  0.225100  0.079400  0.156400  1.0  0.1281
  H  H32  1  0.284500  0.067400  0.387700  1.0  0.1095
  H  H33  1  0.530400  0.509600  0.846500  1.0  0.1184
  H  H34  1  0.642200  0.536000  0.163900  1.0  0.096
  H  H35  1  0.641700  0.456400  0.304600  1.0  0.0915
  H  H36  1  0.979200  0.509600  0.346500  1.0  0.1188
  H  H37  1  0.608900  0.726800  0.194200  1.0  0.0924
  H  H38  1  0.060300  0.633400  0.494800  1.0  0.099
  H  H39  1  0.715500  0.932600  0.612300  1.0  0.1098
  H  H40  1  0.145700  0.920600  0.343600  1.0  0.1277
  H  H41  1  0.266200  0.455800  0.319900  1.0  0.1075
  H  H42  1  0.083200  0.334600  0.490000  1.0  0.1148
  H  H43  1  0.426900  0.366600  0.005200  1.0  0.0995
  H  H44  1  0.358300  0.543600  0.695400  1.0  0.0913
  H  H45  1  0.145900  0.773600  0.065200  1.0  0.0772
  H  H46  1  0.469600  0.490400  0.153500  1.0  0.1189
  H  H47  1  0.691900  0.020200  0.383500  1.0  0.1119
  H  H48  1  0.814700  0.456400  0.804600  1.0  0.0915
  H  H49  1  0.249500  0.886000  0.928900  1.0  0.1053
  H  H50  1  0.241500  0.680600  0.548800  1.0  0.1345
  H  H51  1  0.800400  0.455200  0.300300  1.0  0.0796
  H  H52  1  0.854100  0.226400  0.934800  1.0  0.0766
  H  H53  1  0.636500  0.886000  0.428900  1.0  0.1052
  H  H54  1  0.774900  0.920600  0.843600  1.0  0.1276
  H  H55  1  0.363500  0.114000  0.571100  1.0  0.1052
  H  H56  1  0.573100  0.633400  0.994800  1.0  0.0988
  H  H57  1  0.106200  0.464000  0.336100  1.0  0.0962
  H  H58  1  0.217100  0.932600  0.112300  1.0  0.1104
  H  H59  1  0.914700  0.665600  0.012800  1.0  0.0744
  H  H60  1  0.117900  0.726800  0.694200  1.0  0.0926
  H  H61  1  0.939700  0.366600  0.505200  1.0  0.0994
  H  H62  1  0.199600  0.544800  0.699700  1.0  0.0793
  H  H63  1  0.560900  0.319400  0.951200  1.0  0.1347
  H  H64  1  0.627700  0.773600  0.565200  1.0  0.0772
  H  H65  1  0.328300  0.020200  0.883500  1.0  0.1115
  H  H66  1  0.733800  0.544200  0.680100  1.0  0.108
  H  H67  1  0.189600  0.455800  0.819900  1.0  0.1078
  H  H68  1  0.800700  0.140000  0.352300  1.0  0.1249
  H  H69  1  0.882100  0.273200  0.305800  1.0  0.0914
  H  H70  1  0.604500  0.336400  0.467900  1.0  0.0734
  H  H71  1  0.731900  0.336400  0.967900  1.0  0.0733
  H  H72  1  0.854300  0.079400  0.656400  1.0  0.1279
  H  H73  1  0.782900  0.067400  0.887700  1.0  0.1095
  H  H74  1  0.678600  0.757400  0.792000  1.0  0.1035
  H  H75  1  0.020800  0.490400  0.653500  1.0  0.1187
  H  H76  1  0.268100  0.663600  0.032100  1.0  0.0728
  C  C77  1  0.122900  0.441800  0.597700  1.0  0.1295
  C  C78  1  0.260700  0.499600  0.366700  1.0  0.1089
  C  C79  1  0.359700  0.119600  0.628100  1.0  -0.0536
  C  C80  1  0.148500  0.891600  0.287600  1.0  -0.1885
  C  C81  1  0.131000  0.705400  0.844900  1.0  0.6471
  C  C82  1  0.138400  0.378000  0.031800  1.0  0.1682
  C  C83  1  0.760400  0.622000  0.468200  1.0  0.1689
  C  C84  1  0.793100  0.499800  0.345100  1.0  -0.1344
  C  C85  1  0.843000  0.423800  0.561800  1.0  0.0857
  C  C86  1  0.713200  0.377000  0.008200  1.0  0.1906
  C  C87  1  0.755200  0.364600  0.497900  1.0  -0.149
  C  C88  1  0.341800  0.507600  0.875300  1.0  -0.0897
  C  C89  1  0.311100  0.044800  0.735500  1.0  0.0255
  C  C90  1  0.803300  0.500400  0.847300  1.0  0.1279
  C  C91  1  0.336200  0.623000  0.491800  1.0  0.1901
  C  C92  1  0.761100  0.500400  0.133300  1.0  0.1096
  C  C93  1  0.697100  0.500400  0.347300  1.0  0.1271
  C  C94  1  0.256900  0.108400  0.212400  1.0  -0.1863
  C  C95  1  0.244800  0.635400  0.502100  1.0  -0.1487
  C  C96  1  0.733700  0.044800  0.235500  1.0  0.0257
  C  C97  1  0.240100  0.880400  0.871900  1.0  -0.0526
  C  C98  1  0.302900  0.499600  0.652700  1.0  0.1274
  C  C99  1  0.419200  0.576200  0.938200  1.0  0.0865
  C  C100  1  0.623300  0.785400  0.232600  1.0  -0.0074
  C  C101  1  0.687300  0.793600  0.755500  1.0  -0.0683
  C  C102  1  0.426500  0.448600  0.103100  1.0  -0.0733
  C  C103  1  0.022100  0.448600  0.603100  1.0  -0.0745
  C  C104  1  0.658100  0.865800  0.204900  1.0  -0.1559
  C  C105  1  0.055100  0.639400  0.138200  1.0  0.6592
  C  C106  1  0.106300  0.793600  0.255500  1.0  -0.0689
  C  C107  1  0.207700  0.865800  0.704900  1.0  -0.1557
  C  C108  1  0.750700  0.946600  0.733500  1.0  0.0567
  C  C109  1  0.851500  0.108400  0.712400  1.0  -0.1871
  C  C110  1  0.058900  0.589000  0.445300  1.0  -0.0683
  C  C111  1  0.688900  0.955200  0.264500  1.0  0.0268
  C  C112  1  0.818500  0.208200  0.186500  1.0  -0.1295
  C  C113  1  0.266300  0.955200  0.764500  1.0  0.0265
  C  C114  1  0.708300  0.898400  0.650200  1.0  -0.1954
  C  C115  1  0.286800  0.623000  0.991800  1.0  0.19
  C  C116  1  0.195900  0.946600  0.233500  1.0  0.0568
  C  C117  1  0.656100  0.802200  0.621900  1.0  -0.0365
  C  C118  1  0.792300  0.134200  0.295100  1.0  -0.1562
  C  C119  1  0.681100  0.558200  0.902300  1.0  0.1299
  C  C120  1  0.834200  0.492400  0.624700  1.0  -0.089
  C  C121  1  0.861500  0.622200  0.467000  1.0  -0.19
  C  C122  1  0.877100  0.558200  0.402300  1.0  0.1306
  C  C123  1  0.580800  0.423800  0.061800  1.0  0.0849
  C  C124  1  0.640300  0.880400  0.371900  1.0  -0.0535
  C  C125  1  0.357100  0.253800  0.330200  1.0  -0.0757
  C  C126  1  0.804100  0.053400  0.766500  1.0  0.0571
  C  C127  1  0.861600  0.622000  0.968200  1.0  0.1695
  C  C128  1  0.853900  0.197800  0.878100  1.0  -0.0375
  C  C129  1  0.609400  0.364600  0.997900  1.0  -0.1499
  C  C130  1  0.658200  0.492400  0.124700  1.0  -0.0887
  C  C131  1  0.893700  0.206400  0.744500  1.0  -0.068
  C  C132  1  0.239600  0.378000  0.531800  1.0  0.1686
  C  C133  1  0.941100  0.411000  0.554700  1.0  -0.0646
  C  C134  1  0.341900  0.134200  0.795100  1.0  -0.1577
  C  C135  1  0.574400  0.705400  0.344900  1.0  0.6472
  C  C136  1  0.323500  0.038600  0.655200  1.0  -0.1338
  C  C137  1  0.425600  0.294600  0.655100  1.0  0.6477
  C  C138  1  0.146100  0.802200  0.121900  1.0  -0.037
  C  C139  1  0.760700  0.622200  0.967000  1.0  -0.1908
  C  C140  1  0.573500  0.551400  0.896900  1.0  -0.0758
  C  C141  1  0.291700  0.101600  0.349800  1.0  -0.1934
  C  C142  1  0.944900  0.360600  0.861800  1.0  0.6586
  C  C143  1  0.196700  0.499600  0.152700  1.0  0.127
  C  C144  1  0.739300  0.500400  0.633300  1.0  0.1095
  C  C145  1  0.706700  0.499800  0.845100  1.0  -0.1362
  C  C146  1  0.809900  0.101600  0.849800  1.0  -0.1936
  C  C147  1  0.312700  0.206400  0.244500  1.0  -0.067
  C  C148  1  0.415700  0.360600  0.361800  1.0  0.6628
  C  C149  1  0.206900  0.500200  0.654900  1.0  -0.1371
  C  C150  1  0.584300  0.639400  0.638200  1.0  0.6589
  C  C151  1  0.343900  0.197800  0.378100  1.0  -0.0323
  C  C152  1  0.318900  0.441800  0.097700  1.0  0.1309
  C  C153  1  0.390600  0.635400  0.002100  1.0  -0.147
  C  C154  1  0.610300  0.791800  0.313500  1.0  -0.1281
  C  C155  1  0.376700  0.214600  0.767400  1.0  -0.0079
  C  C156  1  0.676500  0.961400  0.344800  1.0  -0.1346
  C  C157  1  0.469900  0.411000  0.054700  1.0  -0.0687
  C  C158  1  0.181500  0.791800  0.813500  1.0  -0.1283
  C  C159  1  0.239300  0.377800  0.033000  1.0  -0.1921
  C  C160  1  0.165800  0.507600  0.375300  1.0  -0.0892
  C  C161  1  0.162100  0.785400  0.732600  1.0  -0.0079
  C  C162  1  0.530100  0.589000  0.945300  1.0  -0.0643
  C  C163  1  0.896700  0.253800  0.830200  1.0  -0.0757
  C  C164  1  0.293300  0.500200  0.154900  1.0  -0.135
  C  C165  1  0.715100  0.038600  0.155200  1.0  -0.1339
  C  C166  1  0.759900  0.119600  0.128100  1.0  -0.0528
  C  C167  1  0.190100  0.898400  0.150200  1.0  -0.1957
  C  C168  1  0.743100  0.891600  0.787600  1.0  -0.1918
  C  C169  1  0.284900  0.961400  0.844800  1.0  -0.1333
  C  C170  1  0.642900  0.746200  0.669800  1.0  -0.0805
  C  C171  1  0.103300  0.746200  0.169800  1.0  -0.0756
  C  C172  1  0.138500  0.377800  0.533000  1.0  -0.1913
  C  C173  1  0.977900  0.551400  0.396900  1.0  -0.0739
  C  C174  1  0.157000  0.576200  0.438200  1.0  0.086
  C  C175  1  0.837900  0.214600  0.267400  1.0  -0.0075
  C  C176  1  0.869000  0.294600  0.155100  1.0  0.6487
  C  C177  1  0.238900  0.499600  0.866700  1.0  0.1088
  C  C178  1  0.663800  0.377000  0.508200  1.0  0.1913
  C  C179  1  0.249300  0.053400  0.266500  1.0  0.0572
  C  C180  1  0.389700  0.208200  0.686500  1.0  -0.1295
  N  N181  1  0.345300  0.557600  0.428800  1.0  -0.3446
  N  N182  1  0.883200  0.562800  0.909100  1.0  -0.3305
  N  N183  1  0.320400  0.437200  0.590900  1.0  -0.3313
  N  N184  1  0.212300  0.557600  0.928800  1.0  -0.3461
  N  N185  1  0.787700  0.442400  0.071200  1.0  -0.3445
  N  N186  1  0.116800  0.437200  0.090900  1.0  -0.3311
  N  N187  1  0.654700  0.442400  0.571200  1.0  -0.3453
  N  N188  1  0.679600  0.562800  0.409100  1.0  -0.3305
  O  O189  1  0.540500  0.622600  0.286700  1.0  -0.6387
  O  O190  1  0.048660  0.597720  0.060300  1.0  -0.7285
  O  O191  1  0.549060  0.597720  0.560300  1.0  -0.7287
  O  O192  1  0.424000  0.283800  0.579100  1.0  -0.6109
  O  O193  1  0.425540  0.406280  0.309300  1.0  -0.6069
  O  O194  1  0.140200  0.716200  0.920900  1.0  -0.612
  O  O195  1  0.082100  0.622600  0.786700  1.0  -0.6391
  O  O196  1  0.917900  0.377400  0.213300  1.0  -0.6391
  O  O197  1  0.859800  0.283800  0.079100  1.0  -0.6114
  O  O198  1  0.459500  0.377400  0.713300  1.0  -0.6398
  O  O199  1  0.576000  0.716200  0.420900  1.0  -0.6128
  O  O200  1  0.574460  0.593720  0.690700  1.0  -0.6117
  O  O201  1  0.019260  0.593720  0.190700  1.0  -0.6116
  O  O202  1  0.450940  0.402280  0.439700  1.0  -0.7298
  O  O203  1  0.980740  0.406280  0.809300  1.0  -0.6072
  O  O204  1  0.951340  0.402280  0.939700  1.0  -0.7299
