# generated using pymatgen
data_Cd3(C4N3)2
_symmetry_space_group_name_H-M   'P 1'
_cell_length_a   8.77800000
_cell_length_b   8.77800000
_cell_length_c   30.64000000
_cell_angle_alpha   90.00000000
_cell_angle_beta   90.00000000
_cell_angle_gamma   120.00000000
_symmetry_Int_Tables_number   1
_chemical_formula_structural   Cd3(C4N3)2
_chemical_formula_sum   'Cd9 C24 N18'
_cell_volume   2044.61030656
_cell_formula_units_Z   3
loop_
 _symmetry_equiv_pos_site_id
 _symmetry_equiv_pos_as_xyz
  1  'x, y, z'
loop_
 _atom_site_type_symbol
 _atom_site_label
 _atom_site_symmetry_multiplicity
 _atom_site_fract_x
 _atom_site_fract_y
 _atom_site_fract_z
 _atom_site_occupancy
 _atom_site_charge
  Cd  Cd1  1  0.000000  0.000000  0.000000  1.0  0.9524
  Cd  Cd2  1  0.666667  0.333333  0.333333  1.0  0.9445
  Cd  Cd3  1  0.333333  0.666667  0.666667  1.0  0.9448
  Cd  Cd4  1  0.333333  0.666667  0.074890  1.0  0.5986
  Cd  Cd5  1  0.000000  0.000000  0.408220  1.0  0.5981
  Cd  Cd6  1  0.666667  0.333333  0.741560  1.0  0.5984
  Cd  Cd7  1  0.666667  0.333333  0.925110  1.0  0.5974
  Cd  Cd8  1  0.333333  0.666667  0.258440  1.0  0.5972
  Cd  Cd9  1  0.000000  0.000000  0.591780  1.0  0.5975
  C  C10  1  0.333333  0.666667  0.148700  1.0  -0.0982
  C  C11  1  0.000000  0.000000  0.482030  1.0  -0.098
  C  C12  1  0.666667  0.333333  0.815370  1.0  -0.0982
  C  C13  1  0.666667  0.333333  0.851300  1.0  -0.0977
  C  C14  1  0.333333  0.666667  0.184630  1.0  -0.0977
  C  C15  1  0.000000  0.000000  0.517970  1.0  -0.0975
  C  C16  1  0.193400  0.806600  0.055000  1.0  -0.0211
  C  C17  1  0.860070  0.139930  0.388330  1.0  -0.0031
  C  C18  1  0.526730  0.473270  0.721670  1.0  -0.0211
  C  C19  1  0.193400  0.386800  0.055000  1.0  -0.0082
  C  C20  1  0.860070  0.720130  0.388330  1.0  -0.0087
  C  C21  1  0.526730  0.053470  0.721670  1.0  -0.0082
  C  C22  1  0.613200  0.806600  0.055000  1.0  -0.0074
  C  C23  1  0.279870  0.139930  0.388330  1.0  -0.0075
  C  C24  1  0.946530  0.473270  0.721670  1.0  -0.0074
  C  C25  1  0.806600  0.193400  0.945000  1.0  -0.0213
  C  C26  1  0.473270  0.526730  0.278330  1.0  -0.0213
  C  C27  1  0.139930  0.860070  0.611670  1.0  -0.0033
  C  C28  1  0.386800  0.193400  0.945000  1.0  -0.0071
  C  C29  1  0.053470  0.526730  0.278330  1.0  -0.0071
  C  C30  1  0.720130  0.860070  0.611670  1.0  -0.0065
  C  C31  1  0.806600  0.613200  0.945000  1.0  -0.0097
  C  C32  1  0.473270  0.946530  0.278330  1.0  -0.0097
  C  C33  1  0.139930  0.279870  0.611670  1.0  -0.0094
  N  N34  1  0.127100  0.872900  0.043600  1.0  -0.2854
  N  N35  1  0.793770  0.206230  0.376930  1.0  -0.3221
  N  N36  1  0.460430  0.539570  0.710270  1.0  -0.2854
  N  N37  1  0.127100  0.254200  0.043600  1.0  -0.319
  N  N38  1  0.793770  0.587530  0.376930  1.0  -0.3241
  N  N39  1  0.460430  0.920870  0.710270  1.0  -0.319
  N  N40  1  0.745800  0.872900  0.043600  1.0  -0.3196
  N  N41  1  0.412470  0.206230  0.376930  1.0  -0.3249
  N  N42  1  0.079130  0.539570  0.710270  1.0  -0.3196
  N  N43  1  0.872900  0.127100  0.956400  1.0  -0.2849
  N  N44  1  0.539570  0.460430  0.289730  1.0  -0.2849
  N  N45  1  0.206230  0.793770  0.623070  1.0  -0.3221
  N  N46  1  0.254200  0.127100  0.956400  1.0  -0.3228
  N  N47  1  0.920870  0.460430  0.289730  1.0  -0.3228
  N  N48  1  0.587530  0.793770  0.623070  1.0  -0.3284
  N  N49  1  0.872900  0.745800  0.956400  1.0  -0.321
  N  N50  1  0.539570  0.079130  0.289730  1.0  -0.321
  N  N51  1  0.206230  0.412470  0.623070  1.0  -0.3266
