# generated using pymatgen
data_Cd3(C4N3)2
_symmetry_space_group_name_H-M   'P 1'
_cell_length_a   11.11500000
_cell_length_b   13.28700000
_cell_length_c   8.66400000
_cell_angle_alpha   90.00000000
_cell_angle_beta   90.00000000
_cell_angle_gamma   90.00000000
_symmetry_Int_Tables_number   1
_chemical_formula_structural   Cd3(C4N3)2
_chemical_formula_sum   'Cd6 C16 N12'
_cell_volume   1279.54288332
_cell_formula_units_Z   2
loop_
 _symmetry_equiv_pos_site_id
 _symmetry_equiv_pos_as_xyz
  1  'x, y, z'
loop_
 _atom_site_type_symbol
 _atom_site_label
 _atom_site_symmetry_multiplicity
 _atom_site_fract_x
 _atom_site_fract_y
 _atom_site_fract_z
 _atom_site_occupancy
 _atom_site_charge
  Cd  Cd1  1  0.228990  0.000000  0.000000  1.0  0.9697
  Cd  Cd2  1  0.771010  0.500000  0.500000  1.0  0.9698
  Cd  Cd3  1  0.926000  0.903200  0.500000  1.0  0.5631
  Cd  Cd4  1  0.506700  0.135000  0.500000  1.0  0.6617
  Cd  Cd5  1  0.074000  0.403200  0.000000  1.0  0.5603
  Cd  Cd6  1  0.493300  0.635000  0.000000  1.0  0.6606
  C  C7  1  0.035000  0.937200  0.293000  1.0  -0.0364
  C  C8  1  0.413000  0.089000  0.289000  1.0  -0.0204
  C  C9  1  0.965000  0.437200  0.207000  1.0  -0.0346
  C  C10  1  0.587000  0.589000  0.211000  1.0  -0.0228
  C  C11  1  0.965000  0.437200  0.793000  1.0  -0.0354
  C  C12  1  0.587000  0.589000  0.789000  1.0  -0.0216
  C  C13  1  0.035000  0.937200  0.707000  1.0  -0.0351
  C  C14  1  0.413000  0.089000  0.711000  1.0  -0.0217
  C  C15  1  0.117000  0.240000  0.000000  1.0  0.0157
  C  C16  1  0.390000  0.776000  0.000000  1.0  -0.0017
  C  C17  1  0.883000  0.740000  0.500000  1.0  0.0164
  C  C18  1  0.610000  0.276000  0.500000  1.0  -0.0018
  C  C19  1  0.757000  0.986000  0.500000  1.0  -0.1074
  C  C20  1  0.672000  0.035000  0.500000  1.0  -0.1358
  C  C21  1  0.243000  0.486000  0.000000  1.0  -0.1063
  C  C22  1  0.328000  0.535000  0.000000  1.0  -0.1359
  N  N23  1  0.096000  0.951900  0.191000  1.0  -0.3138
  N  N24  1  0.361000  0.058000  0.190000  1.0  -0.2814
  N  N25  1  0.904000  0.451900  0.309000  1.0  -0.3145
  N  N26  1  0.639000  0.558000  0.310000  1.0  -0.2811
  N  N27  1  0.904000  0.451900  0.691000  1.0  -0.3148
  N  N28  1  0.639000  0.558000  0.690000  1.0  -0.2813
  N  N29  1  0.096000  0.951900  0.809000  1.0  -0.3147
  N  N30  1  0.361000  0.058000  0.810000  1.0  -0.2813
  N  N31  1  0.139000  0.161000  0.000000  1.0  -0.2902
  N  N32  1  0.333000  0.849000  0.000000  1.0  -0.3685
  N  N33  1  0.861000  0.661000  0.500000  1.0  -0.2909
  N  N34  1  0.667000  0.349000  0.500000  1.0  -0.3679
