# generated using pymatgen
data_Cd3(C4N3)2
_symmetry_space_group_name_H-M   'P 1'
_cell_length_a   8.69400000
_cell_length_b   11.21200000
_cell_length_c   13.48300000
_cell_angle_alpha   90.00000000
_cell_angle_beta   90.00000000
_cell_angle_gamma   90.00000000
_symmetry_Int_Tables_number   1
_chemical_formula_structural   Cd3(C4N3)2
_chemical_formula_sum   'Cd6 C16 N12'
_cell_volume   1314.28411682
_cell_formula_units_Z   2
loop_
 _symmetry_equiv_pos_site_id
 _symmetry_equiv_pos_as_xyz
  1  'x, y, z'
loop_
 _atom_site_type_symbol
 _atom_site_label
 _atom_site_symmetry_multiplicity
 _atom_site_fract_x
 _atom_site_fract_y
 _atom_site_fract_z
 _atom_site_occupancy
 _atom_site_charge
  Cd  Cd1  1  0.000000  0.766240  0.000000  1.0  0.9819
  Cd  Cd2  1  0.500000  0.233760  0.500000  1.0  0.9821
  Cd  Cd3  1  0.500000  0.067880  0.100770  1.0  0.6097
  Cd  Cd4  1  0.500000  0.485720  0.867540  1.0  0.6307
  Cd  Cd5  1  0.000000  0.932120  0.600770  1.0  0.6101
  Cd  Cd6  1  0.000000  0.514280  0.367540  1.0  0.6304
  C  C7  1  0.707300  0.960800  0.061200  1.0  -0.0242
  C  C8  1  0.706700  0.580000  0.918300  1.0  -0.0364
  C  C9  1  0.792700  0.039200  0.561200  1.0  -0.0226
  C  C10  1  0.793300  0.420000  0.418300  1.0  -0.0354
  C  C11  1  0.207300  0.039200  0.561200  1.0  -0.0239
  C  C12  1  0.206700  0.420000  0.418300  1.0  -0.0361
  C  C13  1  0.292700  0.960800  0.061200  1.0  -0.0228
  C  C14  1  0.293300  0.580000  0.918300  1.0  -0.0356
  C  C15  1  0.000000  0.876500  0.758000  1.0  -0.0193
  C  C16  1  0.000000  0.623500  0.230900  1.0  -0.0215
  C  C17  1  0.500000  0.123500  0.258000  1.0  -0.0199
  C  C18  1  0.500000  0.376500  0.730900  1.0  -0.021
  C  C19  1  0.500000  0.239100  0.017300  1.0  -0.1572
  C  C20  1  0.500000  0.327200  0.975700  1.0  -0.1736
  C  C21  1  0.000000  0.760900  0.517300  1.0  -0.1634
  C  C22  1  0.000000  0.672800  0.475700  1.0  -0.1716
  N  N23  1  0.807700  0.899200  0.041900  1.0  -0.2842
  N  N24  1  0.807500  0.632100  0.949300  1.0  -0.2773
  N  N25  1  0.692300  0.100800  0.541900  1.0  -0.2833
  N  N26  1  0.692500  0.367900  0.449300  1.0  -0.2783
  N  N27  1  0.307700  0.100800  0.541900  1.0  -0.2834
  N  N28  1  0.307500  0.367900  0.449300  1.0  -0.2782
  N  N29  1  0.192300  0.899200  0.041900  1.0  -0.2846
  N  N30  1  0.192500  0.632100  0.949300  1.0  -0.2772
  N  N31  1  0.000000  0.842100  0.838300  1.0  -0.2908
  N  N32  1  0.000000  0.677500  0.158300  1.0  -0.3154
  N  N33  1  0.500000  0.157900  0.338300  1.0  -0.2905
  N  N34  1  0.500000  0.322500  0.658300  1.0  -0.3172
