# generated using pymatgen
data_Cd3(C4N3)2
_symmetry_space_group_name_H-M   'P 1'
_cell_length_a   22.33000000
_cell_length_b   13.29700000
_cell_length_c   8.84600000
_cell_angle_alpha   90.00000000
_cell_angle_beta   90.00000000
_cell_angle_gamma   90.00000000
_symmetry_Int_Tables_number   1
_chemical_formula_structural   Cd3(C4N3)2
_chemical_formula_sum   'Cd12 C32 N24'
_cell_volume   2626.57210046
_cell_formula_units_Z   4
loop_
 _symmetry_equiv_pos_site_id
 _symmetry_equiv_pos_as_xyz
  1  'x, y, z'
loop_
 _atom_site_type_symbol
 _atom_site_label
 _atom_site_symmetry_multiplicity
 _atom_site_fract_x
 _atom_site_fract_y
 _atom_site_fract_z
 _atom_site_occupancy
 _atom_site_charge
  Cd  Cd1  1  0.146050  0.340570  0.250000  1.0  1.02
  Cd  Cd2  1  0.353950  0.840570  0.750000  1.0  1.0196
  Cd  Cd3  1  0.853950  0.659430  0.750000  1.0  1.0196
  Cd  Cd4  1  0.646050  0.159430  0.250000  1.0  1.02
  Cd  Cd5  1  0.293180  0.429180  0.750000  1.0  0.6125
  Cd  Cd6  1  0.995630  0.306610  0.750000  1.0  0.6319
  Cd  Cd7  1  0.206820  0.929180  0.250000  1.0  0.6155
  Cd  Cd8  1  0.504370  0.806610  0.250000  1.0  0.6296
  Cd  Cd9  1  0.706820  0.570820  0.250000  1.0  0.6146
  Cd  Cd10  1  0.004370  0.693390  0.250000  1.0  0.6281
  Cd  Cd11  1  0.793180  0.070820  0.750000  1.0  0.6115
  Cd  Cd12  1  0.495630  0.193390  0.750000  1.0  0.6303
  C  C13  1  0.048300  0.300000  0.957900  1.0  -0.001
  C  C14  1  0.241900  0.393100  0.957600  1.0  -0.022
  C  C15  1  0.451700  0.800000  0.042100  1.0  -0.0014
  C  C16  1  0.258100  0.893100  0.042400  1.0  -0.0232
  C  C17  1  0.951700  0.700000  0.457900  1.0  -0.0
  C  C18  1  0.758100  0.606900  0.457600  1.0  -0.0222
  C  C19  1  0.548300  0.200000  0.542100  1.0  -0.0027
  C  C20  1  0.741900  0.106900  0.542400  1.0  -0.0229
  C  C21  1  0.951700  0.700000  0.042100  1.0  -0.0016
  C  C22  1  0.758100  0.606900  0.042400  1.0  -0.0232
  C  C23  1  0.548300  0.200000  0.957900  1.0  -0.001
  C  C24  1  0.741900  0.106900  0.957600  1.0  -0.022
  C  C25  1  0.048300  0.300000  0.542100  1.0  -0.0025
  C  C26  1  0.241900  0.393100  0.542400  1.0  -0.0228
  C  C27  1  0.451700  0.800000  0.457900  1.0  -0.0002
  C  C28  1  0.258100  0.893100  0.457600  1.0  -0.0222
  C  C29  1  0.066400  0.560200  0.250000  1.0  -0.0285
  C  C30  1  0.187700  0.093400  0.250000  1.0  -0.0281
  C  C31  1  0.433600  0.060200  0.750000  1.0  -0.0283
  C  C32  1  0.312300  0.593400  0.750000  1.0  -0.0286
  C  C33  1  0.933600  0.439800  0.750000  1.0  -0.026
  C  C34  1  0.812300  0.906600  0.750000  1.0  -0.0282
  C  C35  1  0.566400  0.939800  0.250000  1.0  -0.0265
  C  C36  1  0.687700  0.406600  0.250000  1.0  -0.0278
  C  C37  1  0.924100  0.192500  0.750000  1.0  -0.1015
  C  C38  1  0.379600  0.349400  0.750000  1.0  -0.0942
  C  C39  1  0.575900  0.692500  0.250000  1.0  -0.1008
  C  C40  1  0.120400  0.849400  0.250000  1.0  -0.0946
  C  C41  1  0.075900  0.807500  0.250000  1.0  -0.1005
  C  C42  1  0.620400  0.650600  0.250000  1.0  -0.0941
  C  C43  1  0.424100  0.307500  0.750000  1.0  -0.1012
  C  C44  1  0.879600  0.150600  0.750000  1.0  -0.0935
  N  N45  1  0.077600  0.302300  0.061700  1.0  -0.3106
  N  N46  1  0.214500  0.378300  0.061400  1.0  -0.3566
  N  N47  1  0.422400  0.802300  0.938300  1.0  -0.3115
  N  N48  1  0.285500  0.878300  0.938600  1.0  -0.3565
  N  N49  1  0.922400  0.697700  0.561700  1.0  -0.3122
  N  N50  1  0.785500  0.621700  0.561400  1.0  -0.3558
  N  N51  1  0.577600  0.197700  0.438300  1.0  -0.312
  N  N52  1  0.714500  0.121700  0.438600  1.0  -0.3567
  N  N53  1  0.922400  0.697700  0.938300  1.0  -0.3125
  N  N54  1  0.785500  0.621700  0.938600  1.0  -0.3566
  N  N55  1  0.577600  0.197700  0.061700  1.0  -0.3117
  N  N56  1  0.714500  0.121700  0.061400  1.0  -0.3567
  N  N57  1  0.077600  0.302300  0.438300  1.0  -0.3109
  N  N58  1  0.214500  0.378300  0.438600  1.0  -0.3574
  N  N59  1  0.422400  0.802300  0.561700  1.0  -0.3112
  N  N60  1  0.285500  0.878300  0.561400  1.0  -0.356
  N  N61  1  0.099400  0.499200  0.250000  1.0  -0.3353
  N  N62  1  0.178900  0.175700  0.250000  1.0  -0.2924
  N  N63  1  0.400600  0.999200  0.750000  1.0  -0.3365
  N  N64  1  0.321100  0.675700  0.750000  1.0  -0.292
  N  N65  1  0.900600  0.500800  0.750000  1.0  -0.3375
  N  N66  1  0.821100  0.824300  0.750000  1.0  -0.2925
  N  N67  1  0.599400  0.000800  0.250000  1.0  -0.3363
  N  N68  1  0.678900  0.324300  0.250000  1.0  -0.2926
