# generated using pymatgen
data_Cd3(C4N3)2
_symmetry_space_group_name_H-M   'P 1'
_cell_length_a   21.62800000
_cell_length_b   13.99800000
_cell_length_c   8.94500000
_cell_angle_alpha   90.00000000
_cell_angle_beta   90.00000000
_cell_angle_gamma   90.00000000
_symmetry_Int_Tables_number   1
_chemical_formula_structural   Cd3(C4N3)2
_chemical_formula_sum   'Cd12 C32 N24'
_cell_volume   2708.08751508
_cell_formula_units_Z   4
loop_
 _symmetry_equiv_pos_site_id
 _symmetry_equiv_pos_as_xyz
  1  'x, y, z'
loop_
 _atom_site_type_symbol
 _atom_site_label
 _atom_site_symmetry_multiplicity
 _atom_site_fract_x
 _atom_site_fract_y
 _atom_site_fract_z
 _atom_site_occupancy
 _atom_site_charge
  Cd  Cd1  1  0.130000  0.312640  0.250000  1.0  1.0549
  Cd  Cd2  1  0.370000  0.812640  0.750000  1.0  1.0555
  Cd  Cd3  1  0.870000  0.687360  0.750000  1.0  1.056
  Cd  Cd4  1  0.630000  0.187360  0.250000  1.0  1.0553
  Cd  Cd5  1  0.271390  0.433900  0.750000  1.0  0.6866
  Cd  Cd6  1  0.975100  0.319890  0.750000  1.0  0.6206
  Cd  Cd7  1  0.228610  0.933900  0.250000  1.0  0.6858
  Cd  Cd8  1  0.524900  0.819890  0.250000  1.0  0.6207
  Cd  Cd9  1  0.728610  0.566100  0.250000  1.0  0.6854
  Cd  Cd10  1  0.024900  0.680110  0.250000  1.0  0.6202
  Cd  Cd11  1  0.771390  0.066100  0.750000  1.0  0.6862
  Cd  Cd12  1  0.475100  0.180110  0.750000  1.0  0.6202
  C  C13  1  0.032600  0.294600  0.952600  1.0  -0.0186
  C  C14  1  0.225200  0.387100  0.956800  1.0  0.0275
  C  C15  1  0.467400  0.794600  0.047400  1.0  -0.0186
  C  C16  1  0.274800  0.887100  0.043200  1.0  0.0246
  C  C17  1  0.967400  0.705400  0.452600  1.0  -0.0178
  C  C18  1  0.774800  0.612900  0.456800  1.0  0.0266
  C  C19  1  0.532600  0.205400  0.547400  1.0  -0.0194
  C  C20  1  0.725200  0.112900  0.543200  1.0  0.0266
  C  C21  1  0.967400  0.705400  0.047400  1.0  -0.0186
  C  C22  1  0.774800  0.612900  0.043200  1.0  0.0254
  C  C23  1  0.532600  0.205400  0.952600  1.0  -0.0184
  C  C24  1  0.725200  0.112900  0.956800  1.0  0.0276
  C  C25  1  0.032600  0.294600  0.547400  1.0  -0.0196
  C  C26  1  0.225200  0.387100  0.543200  1.0  0.0264
  C  C27  1  0.467400  0.794600  0.452600  1.0  -0.018
  C  C28  1  0.274800  0.887100  0.456800  1.0  0.0257
  C  C29  1  0.069500  0.538500  0.250000  1.0  -0.0075
  C  C30  1  0.187700  0.078500  0.250000  1.0  0.0118
  C  C31  1  0.430500  0.038500  0.750000  1.0  -0.0062
  C  C32  1  0.312300  0.578500  0.750000  1.0  0.0099
  C  C33  1  0.930500  0.461500  0.750000  1.0  -0.0041
  C  C34  1  0.812300  0.921500  0.750000  1.0  0.0093
  C  C35  1  0.569500  0.961500  0.250000  1.0  -0.0057
  C  C36  1  0.687700  0.421500  0.250000  1.0  0.009
  C  C37  1  0.894300  0.219100  0.750000  1.0  -0.1236
  C  C38  1  0.353100  0.332100  0.750000  1.0  -0.114
  C  C39  1  0.605700  0.719100  0.250000  1.0  -0.1224
  C  C40  1  0.146900  0.832100  0.250000  1.0  -0.1178
  C  C41  1  0.105700  0.780900  0.250000  1.0  -0.1226
  C  C42  1  0.646900  0.667900  0.250000  1.0  -0.1184
  C  C43  1  0.394300  0.280900  0.750000  1.0  -0.1236
  C  C44  1  0.853100  0.167900  0.750000  1.0  -0.1136
  N  N45  1  0.063200  0.284600  0.053000  1.0  -0.378
  N  N46  1  0.201800  0.358100  0.062800  1.0  -0.392
  N  N47  1  0.436800  0.784600  0.947000  1.0  -0.3777
  N  N48  1  0.298200  0.858100  0.937200  1.0  -0.3876
  N  N49  1  0.936800  0.715400  0.553000  1.0  -0.3803
  N  N50  1  0.798200  0.641900  0.562800  1.0  -0.3895
  N  N51  1  0.563200  0.215400  0.447000  1.0  -0.3784
  N  N52  1  0.701800  0.141900  0.437200  1.0  -0.3876
  N  N53  1  0.936800  0.715400  0.947000  1.0  -0.379
  N  N54  1  0.798200  0.641900  0.937200  1.0  -0.3871
  N  N55  1  0.563200  0.215400  0.053000  1.0  -0.3791
  N  N56  1  0.701800  0.141900  0.062800  1.0  -0.3907
  N  N57  1  0.063200  0.284600  0.447000  1.0  -0.3768
  N  N58  1  0.201800  0.358100  0.437200  1.0  -0.3896
  N  N59  1  0.436800  0.784600  0.553000  1.0  -0.379
  N  N60  1  0.298200  0.858100  0.562800  1.0  -0.3895
  N  N61  1  0.094900  0.469100  0.250000  1.0  -0.2968
  N  N62  1  0.167800  0.154200  0.250000  1.0  -0.3102
  N  N63  1  0.405100  0.969100  0.750000  1.0  -0.2971
  N  N64  1  0.332200  0.654200  0.750000  1.0  -0.3098
  N  N65  1  0.905100  0.530900  0.750000  1.0  -0.2972
  N  N66  1  0.832200  0.845800  0.750000  1.0  -0.3095
  N  N67  1  0.594900  0.030900  0.250000  1.0  -0.297
  N  N68  1  0.667800  0.345800  0.250000  1.0  -0.3099
