# generated using pymatgen
data_Cd3(C4N3)2
_symmetry_space_group_name_H-M   'P 1'
_cell_length_a   8.77500000
_cell_length_b   8.77500000
_cell_length_c   20.54600000
_cell_angle_alpha   90.00000000
_cell_angle_beta   90.00000000
_cell_angle_gamma   120.00000000
_symmetry_Int_Tables_number   1
_chemical_formula_structural   Cd3(C4N3)2
_chemical_formula_sum   'Cd6 C16 N12'
_cell_volume   1370.09968270
_cell_formula_units_Z   2
loop_
 _symmetry_equiv_pos_site_id
 _symmetry_equiv_pos_as_xyz
  1  'x, y, z'
loop_
 _atom_site_type_symbol
 _atom_site_label
 _atom_site_symmetry_multiplicity
 _atom_site_fract_x
 _atom_site_fract_y
 _atom_site_fract_z
 _atom_site_occupancy
 _atom_site_charge
  Cd  Cd1  1  0.000000  0.000000  0.000000  1.0  1.0121
  Cd  Cd2  1  0.000000  0.000000  0.500000  1.0  1.0121
  Cd  Cd3  1  0.333333  0.666667  0.114760  1.0  0.5953
  Cd  Cd4  1  0.666667  0.333333  0.614760  1.0  0.5953
  Cd  Cd5  1  0.666667  0.333333  0.885240  1.0  0.594
  Cd  Cd6  1  0.333333  0.666667  0.385240  1.0  0.594
  C  C7  1  0.333333  0.666667  0.222000  1.0  -0.1123
  C  C8  1  0.666667  0.333333  0.722000  1.0  -0.1123
  C  C9  1  0.666667  0.333333  0.778000  1.0  -0.1121
  C  C10  1  0.333333  0.666667  0.278000  1.0  -0.1121
  C  C11  1  0.194400  0.388800  0.081100  1.0  -0.0064
  C  C12  1  0.611200  0.805600  0.081100  1.0  -0.0044
  C  C13  1  0.194400  0.805600  0.081100  1.0  -0.0044
  C  C14  1  0.805600  0.611200  0.581100  1.0  -0.0054
  C  C15  1  0.388800  0.194400  0.581100  1.0  -0.0051
  C  C16  1  0.805600  0.194400  0.581100  1.0  -0.0049
  C  C17  1  0.388800  0.194400  0.918900  1.0  -0.0048
  C  C18  1  0.805600  0.611200  0.918900  1.0  -0.005
  C  C19  1  0.805600  0.194400  0.918900  1.0  -0.0048
  C  C20  1  0.611200  0.805600  0.418900  1.0  -0.0036
  C  C21  1  0.194400  0.388800  0.418900  1.0  -0.0059
  C  C22  1  0.194400  0.805600  0.418900  1.0  -0.0037
  N  N23  1  0.127700  0.255400  0.060600  1.0  -0.325
  N  N24  1  0.744600  0.872300  0.060600  1.0  -0.3242
  N  N25  1  0.127700  0.872300  0.060600  1.0  -0.3233
  N  N26  1  0.872300  0.744600  0.560600  1.0  -0.3244
  N  N27  1  0.255400  0.127700  0.560600  1.0  -0.3236
  N  N28  1  0.872300  0.127700  0.560600  1.0  -0.3243
  N  N29  1  0.255400  0.127700  0.939400  1.0  -0.3244
  N  N30  1  0.872300  0.744600  0.939400  1.0  -0.3257
  N  N31  1  0.872300  0.127700  0.939400  1.0  -0.325
  N  N32  1  0.744600  0.872300  0.439400  1.0  -0.3252
  N  N33  1  0.127700  0.255400  0.439400  1.0  -0.3261
  N  N34  1  0.127700  0.872300  0.439400  1.0  -0.3244
