# generated using pymatgen
data_Cd3(C4N3)2
_symmetry_space_group_name_H-M   'P 1'
_cell_length_a   8.78700000
_cell_length_b   8.78700000
_cell_length_c   20.97000000
_cell_angle_alpha   90.00000000
_cell_angle_beta   90.00000000
_cell_angle_gamma   120.00000000
_symmetry_Int_Tables_number   1
_chemical_formula_structural   Cd3(C4N3)2
_chemical_formula_sum   'Cd6 C16 N12'
_cell_volume   1402.20113710
_cell_formula_units_Z   2
loop_
 _symmetry_equiv_pos_site_id
 _symmetry_equiv_pos_as_xyz
  1  'x, y, z'
loop_
 _atom_site_type_symbol
 _atom_site_label
 _atom_site_symmetry_multiplicity
 _atom_site_fract_x
 _atom_site_fract_y
 _atom_site_fract_z
 _atom_site_occupancy
 _atom_site_charge
  Cd  Cd1  1  0.000000  0.000000  0.000000  1.0  1.0087
  Cd  Cd2  1  0.000000  0.000000  0.500000  1.0  1.0087
  Cd  Cd3  1  0.333333  0.666667  0.116100  1.0  0.5833
  Cd  Cd4  1  0.666667  0.333333  0.616100  1.0  0.5833
  Cd  Cd5  1  0.666667  0.333333  0.883900  1.0  0.5814
  Cd  Cd6  1  0.333333  0.666667  0.383900  1.0  0.5814
  C  C7  1  0.333333  0.666667  0.222300  1.0  -0.1171
  C  C8  1  0.666667  0.333333  0.722300  1.0  -0.1171
  C  C9  1  0.666667  0.333333  0.777700  1.0  -0.1179
  C  C10  1  0.333333  0.666667  0.277700  1.0  -0.1179
  C  C11  1  0.195900  0.391800  0.081000  1.0  -0.0082
  C  C12  1  0.608200  0.804100  0.081000  1.0  -0.0065
  C  C13  1  0.195900  0.804100  0.081000  1.0  -0.0069
  C  C14  1  0.804100  0.608200  0.581000  1.0  -0.0075
  C  C15  1  0.391800  0.195900  0.581000  1.0  -0.0073
  C  C16  1  0.804100  0.195900  0.581000  1.0  -0.0069
  C  C17  1  0.391800  0.195900  0.919000  1.0  -0.0065
  C  C18  1  0.804100  0.608200  0.919000  1.0  -0.007
  C  C19  1  0.804100  0.195900  0.919000  1.0  -0.0061
  C  C20  1  0.608200  0.804100  0.419000  1.0  -0.0058
  C  C21  1  0.195900  0.391800  0.419000  1.0  -0.0074
  C  C22  1  0.195900  0.804100  0.419000  1.0  -0.006
  N  N23  1  0.128400  0.256800  0.060400  1.0  -0.3164
  N  N24  1  0.743200  0.871600  0.060400  1.0  -0.316
  N  N25  1  0.128400  0.871600  0.060400  1.0  -0.3149
  N  N26  1  0.871600  0.743200  0.560400  1.0  -0.3163
  N  N27  1  0.256800  0.128400  0.560400  1.0  -0.3149
  N  N28  1  0.871600  0.128400  0.560400  1.0  -0.3159
  N  N29  1  0.256800  0.128400  0.939600  1.0  -0.3159
  N  N30  1  0.871600  0.743200  0.939600  1.0  -0.3174
  N  N31  1  0.871600  0.128400  0.939600  1.0  -0.3168
  N  N32  1  0.743200  0.871600  0.439600  1.0  -0.3169
  N  N33  1  0.128400  0.256800  0.439600  1.0  -0.3175
  N  N34  1  0.128400  0.871600  0.439600  1.0  -0.3159
