# generated using pymatgen
data_Cd3(C4N3)2
_symmetry_space_group_name_H-M   'P 1'
_cell_length_a   22.25600000
_cell_length_b   13.48900000
_cell_length_c   8.86800000
_cell_angle_alpha   90.00000000
_cell_angle_beta   90.00000000
_cell_angle_gamma   90.00000000
_symmetry_Int_Tables_number   1
_chemical_formula_structural   Cd3(C4N3)2
_chemical_formula_sum   'Cd12 C32 N24'
_cell_volume   2662.27277971
_cell_formula_units_Z   4
loop_
 _symmetry_equiv_pos_site_id
 _symmetry_equiv_pos_as_xyz
  1  'x, y, z'
loop_
 _atom_site_type_symbol
 _atom_site_label
 _atom_site_symmetry_multiplicity
 _atom_site_fract_x
 _atom_site_fract_y
 _atom_site_fract_z
 _atom_site_occupancy
 _atom_site_charge
  Cd  Cd1  1  0.142250  0.336900  0.250000  1.0  1.0999
  Cd  Cd2  1  0.357750  0.836900  0.750000  1.0  1.1001
  Cd  Cd3  1  0.857750  0.663100  0.750000  1.0  1.0998
  Cd  Cd4  1  0.642250  0.163100  0.250000  1.0  1.0996
  Cd  Cd5  1  0.288190  0.433810  0.750000  1.0  0.5864
  Cd  Cd6  1  0.991650  0.306300  0.750000  1.0  0.6208
  Cd  Cd7  1  0.211810  0.933810  0.250000  1.0  0.5901
  Cd  Cd8  1  0.508350  0.806300  0.250000  1.0  0.6217
  Cd  Cd9  1  0.711810  0.566190  0.250000  1.0  0.5903
  Cd  Cd10  1  0.008350  0.693700  0.250000  1.0  0.6208
  Cd  Cd11  1  0.788190  0.066190  0.750000  1.0  0.5868
  Cd  Cd12  1  0.491650  0.193700  0.750000  1.0  0.6198
  C  C13  1  0.044300  0.298000  0.958000  1.0  -0.0071
  C  C14  1  0.237100  0.399200  0.957000  1.0  -0.0204
  C  C15  1  0.455700  0.798000  0.042000  1.0  -0.0075
  C  C16  1  0.262900  0.899200  0.043000  1.0  -0.0207
  C  C17  1  0.955700  0.702000  0.458000  1.0  -0.0062
  C  C18  1  0.762900  0.600800  0.457000  1.0  -0.0198
  C  C19  1  0.544300  0.202000  0.542000  1.0  -0.0081
  C  C20  1  0.737100  0.100800  0.543000  1.0  -0.0209
  C  C21  1  0.955700  0.702000  0.042000  1.0  -0.0072
  C  C22  1  0.762900  0.600800  0.043000  1.0  -0.0203
  C  C23  1  0.544300  0.202000  0.958000  1.0  -0.0067
  C  C24  1  0.737100  0.100800  0.957000  1.0  -0.0203
  C  C25  1  0.044300  0.298000  0.542000  1.0  -0.0084
  C  C26  1  0.237100  0.399200  0.543000  1.0  -0.0212
  C  C27  1  0.455700  0.798000  0.458000  1.0  -0.0069
  C  C28  1  0.262900  0.899200  0.457000  1.0  -0.0201
  C  C29  1  0.067000  0.556000  0.250000  1.0  -0.0119
  C  C30  1  0.189700  0.095000  0.250000  1.0  -0.0346
  C  C31  1  0.433000  0.056000  0.750000  1.0  -0.011
  C  C32  1  0.310300  0.595000  0.750000  1.0  -0.0351
  C  C33  1  0.933000  0.444000  0.750000  1.0  -0.0096
  C  C34  1  0.810300  0.905000  0.750000  1.0  -0.0355
  C  C35  1  0.567000  0.944000  0.250000  1.0  -0.0106
  C  C36  1  0.689700  0.405000  0.250000  1.0  -0.0349
  C  C37  1  0.912900  0.196000  0.750000  1.0  -0.156
  C  C38  1  0.370200  0.348000  0.750000  1.0  -0.11
  C  C39  1  0.587100  0.696000  0.250000  1.0  -0.156
  C  C40  1  0.129800  0.848000  0.250000  1.0  -0.1113
  C  C41  1  0.087100  0.804000  0.250000  1.0  -0.1563
  C  C42  1  0.629800  0.652000  0.250000  1.0  -0.1111
  C  C43  1  0.412900  0.304000  0.750000  1.0  -0.1563
  C  C44  1  0.870200  0.152000  0.750000  1.0  -0.1096
  N  N45  1  0.072200  0.297100  0.063000  1.0  -0.3408
  N  N46  1  0.209400  0.379600  0.061000  1.0  -0.3419
  N  N47  1  0.427800  0.797100  0.937000  1.0  -0.3418
  N  N48  1  0.290600  0.879600  0.939000  1.0  -0.3404
  N  N49  1  0.927800  0.702900  0.563000  1.0  -0.3429
  N  N50  1  0.790600  0.620400  0.561000  1.0  -0.3411
  N  N51  1  0.572200  0.202900  0.437000  1.0  -0.3418
  N  N52  1  0.709400  0.120400  0.439000  1.0  -0.3405
  N  N53  1  0.927800  0.702900  0.937000  1.0  -0.343
  N  N54  1  0.790600  0.620400  0.939000  1.0  -0.3405
  N  N55  1  0.572200  0.202900  0.063000  1.0  -0.3424
  N  N56  1  0.709400  0.120400  0.061000  1.0  -0.3418
  N  N57  1  0.072200  0.297100  0.437000  1.0  -0.3411
  N  N58  1  0.209400  0.379600  0.439000  1.0  -0.341
  N  N59  1  0.427800  0.797100  0.563000  1.0  -0.3425
  N  N60  1  0.290600  0.879600  0.561000  1.0  -0.3411
  N  N61  1  0.097900  0.494000  0.250000  1.0  -0.2946
  N  N62  1  0.177400  0.175000  0.250000  1.0  -0.2797
  N  N63  1  0.402100  0.994000  0.750000  1.0  -0.2951
  N  N64  1  0.322600  0.675000  0.750000  1.0  -0.2804
  N  N65  1  0.902100  0.506000  0.750000  1.0  -0.2948
  N  N66  1  0.822600  0.825000  0.750000  1.0  -0.2809
  N  N67  1  0.597900  0.006000  0.250000  1.0  -0.2946
  N  N68  1  0.677400  0.325000  0.250000  1.0  -0.28
