# generated using pymatgen
data_Cd3(C4N3)2
_symmetry_space_group_name_H-M   'P 1'
_cell_length_a   10.81700000
_cell_length_b   27.55300000
_cell_length_c   9.04800000
_cell_angle_alpha   90.00000000
_cell_angle_beta   90.00000000
_cell_angle_gamma   90.00000000
_symmetry_Int_Tables_number   1
_chemical_formula_structural   Cd3(C4N3)2
_chemical_formula_sum   'Cd12 C32 N24'
_cell_volume   2696.67316745
_cell_formula_units_Z   4
loop_
 _symmetry_equiv_pos_site_id
 _symmetry_equiv_pos_as_xyz
  1  'x, y, z'
loop_
 _atom_site_type_symbol
 _atom_site_label
 _atom_site_symmetry_multiplicity
 _atom_site_fract_x
 _atom_site_fract_y
 _atom_site_fract_z
 _atom_site_occupancy
 _atom_site_charge
  Cd  Cd1  1  0.340500  0.000000  0.000000  1.0  0.9723
  Cd  Cd2  1  0.162100  0.194100  0.000000  1.0  0.7099
  Cd  Cd3  1  0.396700  0.801100  0.000000  1.0  0.7764
  Cd  Cd4  1  0.659500  0.500000  0.000000  1.0  0.9727
  Cd  Cd5  1  0.837900  0.694100  0.000000  1.0  0.7146
  Cd  Cd6  1  0.603300  0.301100  0.000000  1.0  0.7776
  Cd  Cd7  1  0.864700  0.237000  0.500000  1.0  1.081
  Cd  Cd8  1  0.631900  0.051600  0.500000  1.0  0.6179
  Cd  Cd9  1  0.066700  0.939700  0.500000  1.0  0.6767
  Cd  Cd10  1  0.135300  0.737000  0.500000  1.0  1.0844
  Cd  Cd11  1  0.368100  0.551600  0.500000  1.0  0.6174
  Cd  Cd12  1  0.933300  0.439700  0.500000  1.0  0.6804
  C  C13  1  0.160000  0.964000  0.299000  1.0  0.0008
  C  C14  1  0.526000  0.034000  0.298000  1.0  -0.0256
  C  C15  1  0.060000  0.211000  0.211000  1.0  -0.0134
  C  C16  1  0.309000  0.772000  0.228000  1.0  -0.0825
  C  C17  1  0.840000  0.464000  0.701000  1.0  0.0019
  C  C18  1  0.474000  0.534000  0.702000  1.0  -0.0252
  C  C19  1  0.940000  0.711000  0.789000  1.0  -0.0145
  C  C20  1  0.691000  0.272000  0.772000  1.0  -0.0834
  C  C21  1  0.840000  0.464000  0.299000  1.0  0.0007
  C  C22  1  0.474000  0.534000  0.298000  1.0  -0.0258
  C  C23  1  0.940000  0.711000  0.211000  1.0  -0.0139
  C  C24  1  0.691000  0.272000  0.228000  1.0  -0.0836
  C  C25  1  0.160000  0.964000  0.701000  1.0  0.0017
  C  C26  1  0.526000  0.034000  0.702000  1.0  -0.0255
  C  C27  1  0.060000  0.211000  0.789000  1.0  -0.0142
  C  C28  1  0.309000  0.772000  0.772000  1.0  -0.0826
  C  C29  1  0.232000  0.118000  0.000000  1.0  -0.0309
  C  C30  1  0.426000  0.881000  0.000000  1.0  0.0044
  C  C31  1  0.581000  0.761000  0.000000  1.0  -0.1034
  C  C32  1  0.327000  0.242000  0.000000  1.0  -0.1436
  C  C33  1  0.768000  0.618000  0.000000  1.0  -0.0299
  C  C34  1  0.574000  0.381000  0.000000  1.0  0.0038
  C  C35  1  0.419000  0.261000  0.000000  1.0  -0.1046
  C  C36  1  0.673000  0.742000  0.000000  1.0  -0.145
  C  C37  1  0.733000  0.123000  0.500000  1.0  -0.0213
  C  C38  1  0.058000  0.858000  0.500000  1.0  -0.0312
  C  C39  1  0.791000  0.998000  0.500000  1.0  -0.1171
  C  C40  1  0.880000  0.978000  0.500000  1.0  -0.0593
  C  C41  1  0.267000  0.623000  0.500000  1.0  -0.0205
  C  C42  1  0.942000  0.358000  0.500000  1.0  -0.0327
  C  C43  1  0.209000  0.498000  0.500000  1.0  -0.1183
  C  C44  1  0.120000  0.478000  0.500000  1.0  -0.059
  N  N45  1  0.210000  0.978000  0.199000  1.0  -0.341
  N  N46  1  0.475000  0.024000  0.197000  1.0  -0.3483
  N  N47  1  0.006000  0.216000  0.319000  1.0  -0.3379
  N  N48  1  0.725000  0.262000  0.342000  1.0  -0.408
  N  N49  1  0.790000  0.478000  0.801000  1.0  -0.3413
  N  N50  1  0.525000  0.524000  0.803000  1.0  -0.3474
  N  N51  1  0.994000  0.716000  0.681000  1.0  -0.3368
  N  N52  1  0.275000  0.762000  0.658000  1.0  -0.4089
  N  N53  1  0.790000  0.478000  0.199000  1.0  -0.341
  N  N54  1  0.525000  0.524000  0.197000  1.0  -0.3477
  N  N55  1  0.994000  0.716000  0.319000  1.0  -0.3381
  N  N56  1  0.275000  0.762000  0.342000  1.0  -0.4099
  N  N57  1  0.210000  0.978000  0.801000  1.0  -0.3412
  N  N58  1  0.475000  0.024000  0.803000  1.0  -0.3494
  N  N59  1  0.006000  0.216000  0.681000  1.0  -0.3361
  N  N60  1  0.725000  0.262000  0.658000  1.0  -0.4083
  N  N61  1  0.258000  0.080000  0.000000  1.0  -0.2709
  N  N62  1  0.410000  0.920000  0.000000  1.0  -0.2891
  N  N63  1  0.742000  0.580000  0.000000  1.0  -0.2707
  N  N64  1  0.590000  0.420000  0.000000  1.0  -0.2886
  N  N65  1  0.782000  0.159000  0.500000  1.0  -0.2746
  N  N66  1  0.940000  0.317000  0.500000  1.0  -0.3889
  N  N67  1  0.218000  0.659000  0.500000  1.0  -0.2746
  N  N68  1  0.060000  0.817000  0.500000  1.0  -0.3889
