# generated using pymatgen
data_Cd3(C4N3)2
_symmetry_space_group_name_H-M   'P 1'
_cell_length_a   8.81400000
_cell_length_b   8.81400000
_cell_length_c   20.56700000
_cell_angle_alpha   90.00000000
_cell_angle_beta   90.00000000
_cell_angle_gamma   120.00000000
_symmetry_Int_Tables_number   1
_chemical_formula_structural   Cd3(C4N3)2
_chemical_formula_sum   'Cd6 C16 N12'
_cell_volume   1383.71826013
_cell_formula_units_Z   2
loop_
 _symmetry_equiv_pos_site_id
 _symmetry_equiv_pos_as_xyz
  1  'x, y, z'
loop_
 _atom_site_type_symbol
 _atom_site_label
 _atom_site_symmetry_multiplicity
 _atom_site_fract_x
 _atom_site_fract_y
 _atom_site_fract_z
 _atom_site_occupancy
 _atom_site_charge
  Cd  Cd1  1  0.000000  0.000000  0.000000  1.0  1.0144
  Cd  Cd2  1  0.000000  0.000000  0.500000  1.0  1.0144
  Cd  Cd3  1  0.333333  0.666667  0.113700  1.0  0.6248
  Cd  Cd4  1  0.666667  0.333333  0.613700  1.0  0.6248
  Cd  Cd5  1  0.666667  0.333333  0.886300  1.0  0.624
  Cd  Cd6  1  0.333333  0.666667  0.386300  1.0  0.624
  C  C7  1  0.333333  0.666667  0.222000  1.0  -0.1131
  C  C8  1  0.666667  0.333333  0.722000  1.0  -0.1131
  C  C9  1  0.666667  0.333333  0.778000  1.0  -0.1135
  C  C10  1  0.333333  0.666667  0.278000  1.0  -0.1135
  C  C11  1  0.194000  0.388000  0.079800  1.0  -0.0133
  C  C12  1  0.612000  0.806000  0.079800  1.0  -0.011
  C  C13  1  0.194000  0.806000  0.079800  1.0  -0.0114
  C  C14  1  0.806000  0.612000  0.579800  1.0  -0.0122
  C  C15  1  0.388000  0.194000  0.579800  1.0  -0.0121
  C  C16  1  0.806000  0.194000  0.579800  1.0  -0.0118
  C  C17  1  0.388000  0.194000  0.920200  1.0  -0.0115
  C  C18  1  0.806000  0.612000  0.920200  1.0  -0.0116
  C  C19  1  0.806000  0.194000  0.920200  1.0  -0.0112
  C  C20  1  0.612000  0.806000  0.420200  1.0  -0.0103
  C  C21  1  0.194000  0.388000  0.420200  1.0  -0.0126
  C  C22  1  0.194000  0.806000  0.420200  1.0  -0.0107
  N  N23  1  0.126000  0.252000  0.061500  1.0  -0.328
  N  N24  1  0.748000  0.874000  0.061500  1.0  -0.3273
  N  N25  1  0.126000  0.874000  0.061500  1.0  -0.3267
  N  N26  1  0.874000  0.748000  0.561500  1.0  -0.3278
  N  N27  1  0.252000  0.126000  0.561500  1.0  -0.3271
  N  N28  1  0.874000  0.126000  0.561500  1.0  -0.3277
  N  N29  1  0.252000  0.126000  0.938500  1.0  -0.3278
  N  N30  1  0.874000  0.748000  0.938500  1.0  -0.3283
  N  N31  1  0.874000  0.126000  0.938500  1.0  -0.3283
  N  N32  1  0.748000  0.874000  0.438500  1.0  -0.328
  N  N33  1  0.126000  0.252000  0.438500  1.0  -0.3289
  N  N34  1  0.126000  0.874000  0.438500  1.0  -0.3275
