# generated using pymatgen
data_Cd3(CN)7
_symmetry_space_group_name_H-M   'P 1'
_cell_length_a   8.77500000
_cell_length_b   8.77500000
_cell_length_c   20.54600000
_cell_angle_alpha   90.00000000
_cell_angle_beta   90.00000000
_cell_angle_gamma   120.00000000
_symmetry_Int_Tables_number   1
_chemical_formula_structural   Cd3(CN)7
_chemical_formula_sum   'Cd6 C14 N14'
_cell_volume   1370.09968270
_cell_formula_units_Z   2
loop_
 _symmetry_equiv_pos_site_id
 _symmetry_equiv_pos_as_xyz
  1  'x, y, z'
loop_
 _atom_site_type_symbol
 _atom_site_label
 _atom_site_symmetry_multiplicity
 _atom_site_fract_x
 _atom_site_fract_y
 _atom_site_fract_z
 _atom_site_occupancy
 _atom_site_charge
  Cd  Cd1  1  0.000000  0.000000  0.000000  1.0  0.985
  Cd  Cd2  1  0.000000  0.000000  0.500000  1.0  0.985
  Cd  Cd3  1  0.666667  0.333333  0.886400  1.0  0.5919
  Cd  Cd4  1  0.333333  0.666667  0.386400  1.0  0.5919
  Cd  Cd5  1  0.333333  0.666667  0.113600  1.0  0.5715
  Cd  Cd6  1  0.666667  0.333333  0.613600  1.0  0.5715
  C  C7  1  0.666667  0.333333  0.775000  1.0  -0.0773
  C  C8  1  0.333333  0.666667  0.275000  1.0  -0.0773
  C  C9  1  0.805000  0.195000  0.918600  1.0  0.035
  C  C10  1  0.390000  0.195000  0.918600  1.0  0.035
  C  C11  1  0.805000  0.610000  0.918600  1.0  0.0343
  C  C12  1  0.195000  0.805000  0.418600  1.0  0.0351
  C  C13  1  0.610000  0.805000  0.418600  1.0  0.035
  C  C14  1  0.195000  0.390000  0.418600  1.0  0.0341
  C  C15  1  0.610000  0.805000  0.081400  1.0  0.0355
  C  C16  1  0.195000  0.805000  0.081400  1.0  0.0357
  C  C17  1  0.195000  0.390000  0.081400  1.0  0.0345
  C  C18  1  0.390000  0.195000  0.581400  1.0  0.0357
  C  C19  1  0.805000  0.195000  0.581400  1.0  0.0357
  C  C20  1  0.805000  0.610000  0.581400  1.0  0.0348
  N  N21  1  0.333333  0.666667  0.225000  1.0  -0.3787
  N  N22  1  0.666667  0.333333  0.725000  1.0  -0.3787
  N  N23  1  0.877400  0.122600  0.934900  1.0  -0.316
  N  N24  1  0.245200  0.122600  0.934900  1.0  -0.317
  N  N25  1  0.877400  0.754800  0.934900  1.0  -0.3189
  N  N26  1  0.122600  0.877400  0.434900  1.0  -0.3165
  N  N27  1  0.754800  0.877400  0.434900  1.0  -0.3158
  N  N28  1  0.122600  0.245200  0.434900  1.0  -0.319
  N  N29  1  0.754800  0.877400  0.065100  1.0  -0.3159
  N  N30  1  0.122600  0.877400  0.065100  1.0  -0.3159
  N  N31  1  0.122600  0.245200  0.065100  1.0  -0.3188
  N  N32  1  0.245200  0.122600  0.565100  1.0  -0.3167
  N  N33  1  0.877400  0.122600  0.565100  1.0  -0.3164
  N  N34  1  0.877400  0.754800  0.565100  1.0  -0.3185
