# generated using pymatgen
data_SmH9C16ClO8
_symmetry_space_group_name_H-M   'P 1'
_cell_length_a   13.01960000
_cell_length_b   13.14880000
_cell_length_c   14.04440000
_cell_angle_alpha   90.00000000
_cell_angle_beta   103.95500000
_cell_angle_gamma   90.00000000
_symmetry_Int_Tables_number   1
_chemical_formula_structural   SmH9C16ClO8
_chemical_formula_sum   'Sm4 H36 C64 Cl4 O32'
_cell_volume   2333.32896346
_cell_formula_units_Z   4
loop_
 _symmetry_equiv_pos_site_id
 _symmetry_equiv_pos_as_xyz
  1  'x, y, z'
loop_
 _atom_site_type_symbol
 _atom_site_label
 _atom_site_symmetry_multiplicity
 _atom_site_fract_x
 _atom_site_fract_y
 _atom_site_fract_z
 _atom_site_occupancy
 _atom_site_charge
  Sm  Sm1  1  0.408870  0.446750  0.088170  1.0  2.272
  Sm  Sm2  1  0.091130  0.946750  0.411830  1.0  2.271
  Sm  Sm3  1  0.591130  0.553250  0.911830  1.0  2.2707
  Sm  Sm4  1  0.908870  0.053250  0.588170  1.0  2.2716
  H  H5  1  0.811000  0.244200  0.039400  1.0  0.1208
  H  H6  1  0.264200  0.223000  0.038000  1.0  0.4123
  H  H7  1  0.897000  0.134200  0.161200  1.0  0.0995
  H  H8  1  0.575300  0.368500  0.431500  1.0  0.1108
  H  H9  1  0.365800  0.595200  0.403500  1.0  0.1098
  H  H10  1  0.725400  0.241900  0.340300  1.0  0.1058
  H  H11  1  0.635300  0.349700  0.217000  1.0  0.1198
  H  H12  1  0.593800  0.125000  0.099700  1.0  0.0971
  H  H13  1  0.318900  0.016300  0.938400  1.0  0.1211
  H  H14  1  0.689000  0.744200  0.460600  1.0  0.1213
  H  H15  1  0.235800  0.723000  0.462000  1.0  0.4106
  H  H16  1  0.603000  0.634200  0.338800  1.0  0.0984
  H  H17  1  0.924700  0.868500  0.068500  1.0  0.1111
  H  H18  1  0.134200  0.095200  0.096500  1.0  0.1097
  H  H19  1  0.774600  0.741900  0.159700  1.0  0.1056
  H  H20  1  0.864700  0.849700  0.283000  1.0  0.1203
  H  H21  1  0.906200  0.625000  0.400300  1.0  0.0977
  H  H22  1  0.181100  0.516300  0.561600  1.0  0.1199
  H  H23  1  0.189000  0.755800  0.960600  1.0  0.121
  H  H24  1  0.735800  0.777000  0.962000  1.0  0.4116
  H  H25  1  0.103000  0.865800  0.838800  1.0  0.0985
  H  H26  1  0.424700  0.631500  0.568500  1.0  0.1109
  H  H27  1  0.634200  0.404800  0.596500  1.0  0.1104
  H  H28  1  0.274600  0.758100  0.659700  1.0  0.1055
  H  H29  1  0.364700  0.650300  0.783000  1.0  0.1203
  H  H30  1  0.406200  0.875000  0.900300  1.0  0.0986
  H  H31  1  0.681100  0.983700  0.061600  1.0  0.1198
  H  H32  1  0.311000  0.255800  0.539400  1.0  0.1208
  H  H33  1  0.764200  0.277000  0.538000  1.0  0.4119
  H  H34  1  0.397000  0.365800  0.661200  1.0  0.099
  H  H35  1  0.075300  0.131500  0.931500  1.0  0.1107
  H  H36  1  0.865800  0.904800  0.903500  1.0  0.1094
  H  H37  1  0.225400  0.258100  0.840300  1.0  0.1057
  H  H38  1  0.135300  0.150300  0.717000  1.0  0.1198
  H  H39  1  0.093800  0.375000  0.599700  1.0  0.0983
  H  H40  1  0.818900  0.483700  0.438400  1.0  0.121
  C  C41  1  0.882600  0.114200  0.346400  1.0  0.7196
  C  C42  1  0.465200  0.479500  0.400300  1.0  -0.1267
  C  C43  1  0.392500  0.177000  0.047800  1.0  0.6649
  C  C44  1  0.713800  0.307300  0.115700  1.0  -0.1361
  C  C45  1  0.793200  0.243300  0.099700  1.0  -0.0293
  C  C46  1  0.429100  0.457900  0.291900  1.0  0.683
  C  C47  1  0.845500  0.178300  0.172900  1.0  -0.025
  C  C48  1  0.545000  0.421700  0.458800  1.0  -0.0194
  C  C49  1  0.420200  0.556900  0.442100  1.0  -0.0258
  C  C50  1  0.742500  0.242300  0.279700  1.0  -0.0011
  C  C51  1  0.821100  0.178900  0.264100  1.0  -0.1227
  C  C52  1  0.659200  0.379300  0.038000  1.0  0.7216
  C  C53  1  0.688200  0.307100  0.205800  1.0  -0.0308
  C  C54  1  0.447900  0.084000  0.023600  1.0  -0.1536
  C  C55  1  0.556200  0.074400  0.059700  1.0  -0.0172
  C  C56  1  0.391600  0.009600  0.963200  1.0  -0.0123
  C  C57  1  0.617400  0.614200  0.153600  1.0  0.7197
  C  C58  1  0.034800  0.979500  0.099700  1.0  -0.1271
  C  C59  1  0.107500  0.677000  0.452200  1.0  0.6635
  C  C60  1  0.786200  0.807300  0.384300  1.0  -0.137
  C  C61  1  0.706800  0.743300  0.400300  1.0  -0.0279
  C  C62  1  0.070900  0.957900  0.208100  1.0  0.6845
  C  C63  1  0.654500  0.678300  0.327100  1.0  -0.0267
  C  C64  1  0.955000  0.921700  0.041200  1.0  -0.0188
  C  C65  1  0.079800  0.056900  0.057900  1.0  -0.0275
  C  C66  1  0.757500  0.742300  0.220300  1.0  0.0
  C  C67  1  0.678900  0.678900  0.235900  1.0  -0.1223
  C  C68  1  0.840800  0.879300  0.462000  1.0  0.7211
  C  C69  1  0.811800  0.807100  0.294200  1.0  -0.0309
  C  C70  1  0.052100  0.584000  0.476400  1.0  -0.1537
  C  C71  1  0.943800  0.574400  0.440300  1.0  -0.0175
  C  C72  1  0.108400  0.509600  0.536800  1.0  -0.0098
  C  C73  1  0.117400  0.885800  0.653600  1.0  0.7193
  C  C74  1  0.534800  0.520500  0.599700  1.0  -0.1271
  C  C75  1  0.607500  0.823000  0.952200  1.0  0.6629
  C  C76  1  0.286200  0.692700  0.884300  1.0  -0.1363
  C  C77  1  0.206800  0.756700  0.900300  1.0  -0.0274
  C  C78  1  0.570900  0.542100  0.708100  1.0  0.6834
  C  C79  1  0.154500  0.821700  0.827100  1.0  -0.026
  C  C80  1  0.455000  0.578300  0.541200  1.0  -0.0197
  C  C81  1  0.579800  0.443100  0.557900  1.0  -0.0271
  C  C82  1  0.257500  0.757700  0.720300  1.0  -0.0002
  C  C83  1  0.178900  0.821100  0.735900  1.0  -0.122
  C  C84  1  0.340800  0.620700  0.962000  1.0  0.7208
  C  C85  1  0.311800  0.692900  0.794200  1.0  -0.0322
  C  C86  1  0.552100  0.916000  0.976400  1.0  -0.154
  C  C87  1  0.443800  0.925600  0.940300  1.0  -0.0213
  C  C88  1  0.608400  0.990400  0.036800  1.0  -0.0098
  C  C89  1  0.382600  0.385800  0.846400  1.0  0.7193
  C  C90  1  0.965200  0.020500  0.900300  1.0  -0.1249
  C  C91  1  0.892500  0.323000  0.547800  1.0  0.6646
  C  C92  1  0.213800  0.192700  0.615700  1.0  -0.1365
  C  C93  1  0.293200  0.256700  0.599700  1.0  -0.0285
  C  C94  1  0.929100  0.042100  0.791900  1.0  0.6825
  C  C95  1  0.345500  0.321700  0.672900  1.0  -0.0251
  C  C96  1  0.045000  0.078300  0.958800  1.0  -0.0193
  C  C97  1  0.920200  0.943100  0.942100  1.0  -0.026
  C  C98  1  0.242500  0.257700  0.779700  1.0  -0.0012
  C  C99  1  0.321100  0.321100  0.764100  1.0  -0.1227
  C  C100  1  0.159200  0.120700  0.538000  1.0  0.7219
  C  C101  1  0.188200  0.192900  0.705800  1.0  -0.0311
  C  C102  1  0.947900  0.416000  0.523600  1.0  -0.1532
  C  C103  1  0.056200  0.425600  0.559700  1.0  -0.0216
  C  C104  1  0.891600  0.490400  0.463200  1.0  -0.012
  Cl  Cl105  1  0.196730  0.361390  0.076670  1.0  -0.4148
  Cl  Cl106  1  0.303270  0.861390  0.423330  1.0  -0.4113
  Cl  Cl107  1  0.803270  0.638610  0.923330  1.0  -0.4109
  Cl  Cl108  1  0.696730  0.138610  0.576670  1.0  -0.4138
  O  O109  1  0.849500  0.112700  0.423300  1.0  -0.6877
  O  O110  1  0.472700  0.387700  0.256400  1.0  -0.6634
  O  O111  1  0.358500  0.512000  0.239900  1.0  -0.6733
  O  O112  1  0.570000  0.414600  0.040400  1.0  -0.7754
  O  O113  1  0.441200  0.251200  0.086200  1.0  -0.5981
  O  O114  1  0.290100  0.170100  0.023500  1.0  -0.5185
  O  O115  1  0.962000  0.069500  0.332300  1.0  -0.6947
  O  O116  1  0.704100  0.406400  0.973100  1.0  -0.6338
  O  O117  1  0.650500  0.612700  0.076700  1.0  -0.6861
  O  O118  1  0.027300  0.887700  0.243600  1.0  -0.6634
  O  O119  1  0.141500  0.012000  0.260100  1.0  -0.6702
  O  O120  1  0.930000  0.914600  0.459600  1.0  -0.7759
  O  O121  1  0.058800  0.751200  0.413800  1.0  -0.5975
  O  O122  1  0.209900  0.670100  0.476500  1.0  -0.5161
  O  O123  1  0.538000  0.569500  0.167700  1.0  -0.6956
  O  O124  1  0.795900  0.906400  0.526900  1.0  -0.6353
  O  O125  1  0.150500  0.887300  0.576700  1.0  -0.6861
  O  O126  1  0.527300  0.612300  0.743600  1.0  -0.6627
  O  O127  1  0.641500  0.488000  0.760100  1.0  -0.6698
  O  O128  1  0.430000  0.585400  0.959600  1.0  -0.7756
  O  O129  1  0.558800  0.748800  0.913800  1.0  -0.5974
  O  O130  1  0.709900  0.829900  0.976500  1.0  -0.5161
  O  O131  1  0.038000  0.930500  0.667700  1.0  -0.6955
  O  O132  1  0.295900  0.593600  0.026900  1.0  -0.6348
  O  O133  1  0.349500  0.387300  0.923300  1.0  -0.6875
  O  O134  1  0.972700  0.112300  0.756400  1.0  -0.6635
  O  O135  1  0.858500  0.988000  0.739900  1.0  -0.6737
  O  O136  1  0.070000  0.085400  0.540400  1.0  -0.7748
  O  O137  1  0.941200  0.248800  0.586200  1.0  -0.5983
  O  O138  1  0.790100  0.329900  0.523500  1.0  -0.5174
  O  O139  1  0.462000  0.430500  0.832300  1.0  -0.6949
  O  O140  1  0.204100  0.093600  0.473100  1.0  -0.6339
