# generated using pymatgen
data_Eu2H13C24ClO12
_symmetry_space_group_name_H-M   'P 1'
_cell_length_a   8.04510000
_cell_length_b   21.37850000
_cell_length_c   18.33260000
_cell_angle_alpha   90.00000000
_cell_angle_beta   90.03500000
_cell_angle_gamma   90.00000000
_symmetry_Int_Tables_number   1
_chemical_formula_structural   Eu2H13C24ClO12
_chemical_formula_sum   'Eu8 H52 C96 Cl4 O48'
_cell_volume   3153.06307387
_cell_formula_units_Z   4
loop_
 _symmetry_equiv_pos_site_id
 _symmetry_equiv_pos_as_xyz
  1  'x, y, z'
loop_
 _atom_site_type_symbol
 _atom_site_label
 _atom_site_symmetry_multiplicity
 _atom_site_fract_x
 _atom_site_fract_y
 _atom_site_fract_z
 _atom_site_occupancy
 _atom_site_charge
  Eu  Eu1  1  0.144500  0.581220  0.250300  1.0  2.1485
  Eu  Eu2  1  0.651870  0.631670  0.275370  1.0  1.9802
  Eu  Eu3  1  0.855500  0.081220  0.249700  1.0  2.1458
  Eu  Eu4  1  0.348130  0.131670  0.224630  1.0  1.9819
  Eu  Eu5  1  0.855500  0.418780  0.749700  1.0  2.1458
  Eu  Eu6  1  0.348130  0.368330  0.724630  1.0  1.9859
  Eu  Eu7  1  0.144500  0.918780  0.750300  1.0  2.1484
  Eu  Eu8  1  0.651870  0.868330  0.775370  1.0  1.9856
  H  H9  1  0.045600  0.784700  0.269400  1.0  0.089
  H  H10  1  0.990200  0.892800  0.273300  1.0  0.1099
  H  H11  1  0.479000  0.925300  0.249500  1.0  0.1068
  H  H12  1  0.530000  0.820200  0.246900  1.0  0.1152
  H  H13  1  0.748500  0.745100  0.123500  1.0  0.1232
  H  H14  1  0.663900  0.795700  0.022100  1.0  0.0957
  H  H15  1  0.894300  0.672700  0.893700  1.0  0.0869
  H  H16  1  0.979300  0.617800  0.994700  1.0  0.1051
  H  H17  1  0.257700  0.482000  0.060200  1.0  0.0862
  H  H18  1  0.711500  0.555600  0.055700  1.0  0.1096
  H  H19  1  0.567900  0.596000  0.448400  1.0  0.1006
  H  H20  1  0.324700  0.432800  0.437900  1.0  0.1039
  H  H21  1  0.606400  0.586300  0.192200  1.0  0.3911
  H  H22  1  0.954400  0.284700  0.230600  1.0  0.0897
  H  H23  1  0.009800  0.392800  0.226700  1.0  0.1088
  H  H24  1  0.521000  0.425300  0.250500  1.0  0.1069
  H  H25  1  0.470000  0.320200  0.253100  1.0  0.115
  H  H26  1  0.251500  0.245100  0.376500  1.0  0.1235
  H  H27  1  0.336100  0.295700  0.477900  1.0  0.0963
  H  H28  1  0.105700  0.172700  0.606300  1.0  0.0861
  H  H29  1  0.020700  0.117800  0.505300  1.0  0.1037
  H  H30  1  0.742300  0.982000  0.439800  1.0  0.0864
  H  H31  1  0.288500  0.055600  0.444300  1.0  0.1094
  H  H32  1  0.432100  0.096000  0.051600  1.0  0.1004
  H  H33  1  0.675300  0.932800  0.062100  1.0  0.1043
  H  H34  1  0.393600  0.086300  0.307800  1.0  0.3899
  H  H35  1  0.954400  0.215300  0.730600  1.0  0.0894
  H  H36  1  0.009800  0.107200  0.726700  1.0  0.1092
  H  H37  1  0.521000  0.074700  0.750500  1.0  0.1072
  H  H38  1  0.470000  0.179800  0.753100  1.0  0.115
  H  H39  1  0.251500  0.254900  0.876500  1.0  0.1234
  H  H40  1  0.336100  0.204300  0.977900  1.0  0.0959
  H  H41  1  0.105700  0.327300  0.106300  1.0  0.0861
  H  H42  1  0.020700  0.382200  0.005300  1.0  0.1045
  H  H43  1  0.742300  0.518000  0.939800  1.0  0.0865
  H  H44  1  0.288500  0.444400  0.944300  1.0  0.1094
  H  H45  1  0.432100  0.404000  0.551600  1.0  0.1008
  H  H46  1  0.675300  0.567200  0.562100  1.0  0.1041
  H  H47  1  0.393600  0.413700  0.807800  1.0  0.3899
  H  H48  1  0.045600  0.715300  0.769400  1.0  0.0893
  H  H49  1  0.990200  0.607200  0.773300  1.0  0.1102
  H  H50  1  0.479000  0.574700  0.749500  1.0  0.1075
  H  H51  1  0.530000  0.679800  0.746900  1.0  0.1151
  H  H52  1  0.748500  0.754900  0.623500  1.0  0.1231
  H  H53  1  0.663900  0.704300  0.522100  1.0  0.0953
  H  H54  1  0.894300  0.827300  0.393700  1.0  0.0867
  H  H55  1  0.979300  0.882200  0.494700  1.0  0.1051
  H  H56  1  0.257700  0.018000  0.560200  1.0  0.0861
  H  H57  1  0.711500  0.944400  0.555700  1.0  0.1097
  H  H58  1  0.567900  0.904000  0.948400  1.0  0.1013
  H  H59  1  0.324700  0.067200  0.937900  1.0  0.1042
  H  H60  1  0.606400  0.913700  0.692200  1.0  0.3913
  C  C61  1  0.286000  0.792900  0.258900  1.0  -0.1515
  C  C62  1  0.132500  0.813200  0.265800  1.0  -0.0147
  C  C63  1  0.098000  0.878200  0.267600  1.0  -0.05
  C  C64  1  0.227600  0.918900  0.260900  1.0  -0.1266
  C  C65  1  0.392000  0.897000  0.253500  1.0  -0.0416
  C  C66  1  0.422100  0.835200  0.252100  1.0  -0.0721
  C  C67  1  0.326000  0.723500  0.251900  1.0  0.7632
  C  C68  1  0.195200  0.987300  0.258300  1.0  0.7173
  C  C69  1  0.879200  0.675200  0.070400  1.0  -0.1406
  C  C70  1  0.778000  0.730200  0.077700  1.0  -0.0974
  C  C71  1  0.727000  0.759500  0.017300  1.0  -0.0415
  C  C72  1  0.764500  0.737600  0.946200  1.0  -0.1338
  C  C73  1  0.862800  0.686400  0.939800  1.0  -0.0381
  C  C74  1  0.916900  0.654100  0.000500  1.0  -0.0649
  C  C75  1  0.951000  0.643000  0.134400  1.0  0.664
  C  C76  1  0.710700  0.773700  0.879600  1.0  0.6965
  C  C77  1  0.474000  0.525100  0.068800  1.0  -0.057
  C  C78  1  0.356000  0.490000  0.035300  1.0  -0.0314
  C  C79  1  0.625000  0.533900  0.033200  1.0  -0.1678
  C  C80  1  0.444000  0.550500  0.142300  1.0  0.6453
  C  C81  1  0.438500  0.517500  0.431000  1.0  -0.1128
  C  C82  1  0.540000  0.557300  0.468400  1.0  -0.0807
  C  C83  1  0.396000  0.459900  0.462600  1.0  -0.0555
  C  C84  1  0.358200  0.532700  0.361300  1.0  0.6395
  C  C85  1  0.714000  0.292900  0.241100  1.0  -0.1519
  C  C86  1  0.867500  0.313200  0.234200  1.0  -0.0149
  C  C87  1  0.902000  0.378200  0.232400  1.0  -0.0501
  C  C88  1  0.772400  0.418900  0.239100  1.0  -0.1271
  C  C89  1  0.608000  0.397000  0.246500  1.0  -0.042
  C  C90  1  0.577900  0.335200  0.247900  1.0  -0.0719
  C  C91  1  0.674000  0.223500  0.248100  1.0  0.7633
  C  C92  1  0.804800  0.487300  0.241700  1.0  0.718
  C  C93  1  0.120800  0.175200  0.429600  1.0  -0.1404
  C  C94  1  0.222000  0.230200  0.422300  1.0  -0.0953
  C  C95  1  0.273000  0.259500  0.482700  1.0  -0.0414
  C  C96  1  0.235500  0.237600  0.553800  1.0  -0.1333
  C  C97  1  0.137200  0.186400  0.560200  1.0  -0.0371
  C  C98  1  0.083100  0.154100  0.499500  1.0  -0.0625
  C  C99  1  0.049000  0.143000  0.365600  1.0  0.6623
  C  C100  1  0.289300  0.273700  0.620400  1.0  0.6949
  C  C101  1  0.526000  0.025100  0.431200  1.0  -0.0567
  C  C102  1  0.644000  0.990000  0.464700  1.0  -0.0322
  C  C103  1  0.375000  0.033900  0.466800  1.0  -0.1673
  C  C104  1  0.556000  0.050500  0.357700  1.0  0.6451
  C  C105  1  0.561500  0.017500  0.069000  1.0  -0.1132
  C  C106  1  0.460000  0.057300  0.031600  1.0  -0.0821
  C  C107  1  0.604000  0.959900  0.037400  1.0  -0.0546
  C  C108  1  0.641800  0.032700  0.138700  1.0  0.642
  C  C109  1  0.714000  0.207100  0.741100  1.0  -0.152
  C  C110  1  0.867500  0.186800  0.734200  1.0  -0.0149
  C  C111  1  0.902000  0.121800  0.732400  1.0  -0.0497
  C  C112  1  0.772400  0.081100  0.739100  1.0  -0.1267
  C  C113  1  0.608000  0.103000  0.746500  1.0  -0.042
  C  C114  1  0.577900  0.164800  0.747900  1.0  -0.0727
  C  C115  1  0.674000  0.276500  0.748100  1.0  0.7628
  C  C116  1  0.804800  0.012700  0.741700  1.0  0.7177
  C  C117  1  0.120800  0.324800  0.929600  1.0  -0.1408
  C  C118  1  0.222000  0.269800  0.922300  1.0  -0.0961
  C  C119  1  0.273000  0.240500  0.982700  1.0  -0.0412
  C  C120  1  0.235500  0.262400  0.053800  1.0  -0.1336
  C  C121  1  0.137200  0.313600  0.060200  1.0  -0.0373
  C  C122  1  0.083100  0.345900  0.999500  1.0  -0.0616
  C  C123  1  0.049000  0.357000  0.865600  1.0  0.6626
  C  C124  1  0.289300  0.226300  0.120400  1.0  0.6949
  C  C125  1  0.526000  0.474900  0.931200  1.0  -0.0562
  C  C126  1  0.644000  0.510000  0.964700  1.0  -0.033
  C  C127  1  0.375000  0.466100  0.966800  1.0  -0.1683
  C  C128  1  0.556000  0.449500  0.857700  1.0  0.6452
  C  C129  1  0.561500  0.482500  0.569000  1.0  -0.1132
  C  C130  1  0.460000  0.442700  0.531600  1.0  -0.0799
  C  C131  1  0.604000  0.540100  0.537400  1.0  -0.0548
  C  C132  1  0.641800  0.467300  0.638700  1.0  0.642
  C  C133  1  0.286000  0.707100  0.758900  1.0  -0.1517
  C  C134  1  0.132500  0.686800  0.765800  1.0  -0.0155
  C  C135  1  0.098000  0.621800  0.767600  1.0  -0.0491
  C  C136  1  0.227600  0.581100  0.760900  1.0  -0.1265
  C  C137  1  0.392000  0.603000  0.753500  1.0  -0.0415
  C  C138  1  0.422100  0.664800  0.752100  1.0  -0.0727
  C  C139  1  0.326000  0.776500  0.751900  1.0  0.7629
  C  C140  1  0.195200  0.512700  0.758300  1.0  0.7169
  C  C141  1  0.879200  0.824800  0.570400  1.0  -0.1408
  C  C142  1  0.778000  0.769800  0.577700  1.0  -0.097
  C  C143  1  0.727000  0.740500  0.517300  1.0  -0.0401
  C  C144  1  0.764500  0.762400  0.446200  1.0  -0.1346
  C  C145  1  0.862800  0.813600  0.439800  1.0  -0.0383
  C  C146  1  0.916900  0.845900  0.500500  1.0  -0.0646
  C  C147  1  0.951000  0.857000  0.634400  1.0  0.6645
  C  C148  1  0.710700  0.726300  0.379600  1.0  0.6963
  C  C149  1  0.474000  0.974900  0.568800  1.0  -0.0566
  C  C150  1  0.356000  0.010000  0.535300  1.0  -0.0322
  C  C151  1  0.625000  0.966100  0.533200  1.0  -0.1682
  C  C152  1  0.444000  0.949500  0.642300  1.0  0.6455
  C  C153  1  0.438500  0.982500  0.931000  1.0  -0.1128
  C  C154  1  0.540000  0.942700  0.968400  1.0  -0.0791
  C  C155  1  0.396000  0.040100  0.962600  1.0  -0.0555
  C  C156  1  0.358200  0.967300  0.861300  1.0  0.6398
  Cl  Cl157  1  0.933300  0.598700  0.367200  1.0  -0.5329
  Cl  Cl158  1  0.066700  0.098700  0.132800  1.0  -0.5329
  Cl  Cl159  1  0.066700  0.401300  0.632800  1.0  -0.5334
  Cl  Cl160  1  0.933300  0.901300  0.867200  1.0  -0.5324
  O  O161  1  0.205400  0.686300  0.261600  1.0  -0.6902
  O  O162  1  0.464600  0.705700  0.236300  1.0  -0.6347
  O  O163  1  0.049000  0.006600  0.274500  1.0  -0.6755
  O  O164  1  0.309500  0.022500  0.235100  1.0  -0.5862
  O  O165  1  0.880400  0.647600  0.196100  1.0  -0.79
  O  O166  1  0.079900  0.614300  0.128400  1.0  -0.5867
  O  O167  1  0.593700  0.814300  0.888800  1.0  -0.6631
  O  O168  1  0.777300  0.765500  0.819900  1.0  -0.6263
  O  O169  1  0.334100  0.530900  0.179500  1.0  -0.611
  O  O170  1  0.544000  0.597000  0.159000  1.0  -0.5307
  O  O171  1  0.402800  0.585200  0.328700  1.0  -0.814
  O  O172  1  0.247300  0.500800  0.334800  1.0  -0.6632
  O  O173  1  0.794600  0.186300  0.238400  1.0  -0.6896
  O  O174  1  0.535400  0.205700  0.263700  1.0  -0.6344
  O  O175  1  0.951000  0.506600  0.225500  1.0  -0.6754
  O  O176  1  0.690500  0.522500  0.264900  1.0  -0.5864
  O  O177  1  0.119600  0.147600  0.303900  1.0  -0.79
  O  O178  1  0.920100  0.114300  0.371600  1.0  -0.5848
  O  O179  1  0.406300  0.314300  0.611200  1.0  -0.6644
  O  O180  1  0.222700  0.265500  0.680100  1.0  -0.6247
  O  O181  1  0.665900  0.030900  0.320500  1.0  -0.6109
  O  O182  1  0.456000  0.097000  0.341000  1.0  -0.5319
  O  O183  1  0.597200  0.085200  0.171300  1.0  -0.8136
  O  O184  1  0.752700  0.000800  0.165200  1.0  -0.6615
  O  O185  1  0.794600  0.313700  0.738400  1.0  -0.6892
  O  O186  1  0.535400  0.294300  0.763700  1.0  -0.6344
  O  O187  1  0.951000  0.993400  0.725500  1.0  -0.675
  O  O188  1  0.690500  0.977500  0.764900  1.0  -0.5872
  O  O189  1  0.119600  0.352400  0.803900  1.0  -0.7906
  O  O190  1  0.920100  0.385700  0.871600  1.0  -0.5844
  O  O191  1  0.406300  0.185700  0.111200  1.0  -0.6644
  O  O192  1  0.222700  0.234500  0.180100  1.0  -0.6247
  O  O193  1  0.665900  0.469100  0.820500  1.0  -0.6103
  O  O194  1  0.456000  0.403000  0.841000  1.0  -0.5334
  O  O195  1  0.597200  0.414800  0.671300  1.0  -0.8135
  O  O196  1  0.752700  0.499200  0.665200  1.0  -0.662
  O  O197  1  0.205400  0.813700  0.761600  1.0  -0.6898
  O  O198  1  0.464600  0.794300  0.736300  1.0  -0.6349
  O  O199  1  0.049000  0.493400  0.774500  1.0  -0.6753
  O  O200  1  0.309500  0.477500  0.735100  1.0  -0.5859
  O  O201  1  0.880400  0.852400  0.696100  1.0  -0.7895
  O  O202  1  0.079900  0.885700  0.628400  1.0  -0.586
  O  O203  1  0.593700  0.685700  0.388800  1.0  -0.6631
  O  O204  1  0.777300  0.734500  0.319900  1.0  -0.6261
  O  O205  1  0.334100  0.969100  0.679500  1.0  -0.611
  O  O206  1  0.544000  0.903000  0.659000  1.0  -0.534
  O  O207  1  0.402800  0.914800  0.828700  1.0  -0.8131
  O  O208  1  0.247300  0.999200  0.834800  1.0  -0.6633
