# generated using pymatgen
data_CdH7C9(NO)3
_symmetry_space_group_name_H-M   'P 1'
_cell_length_a   5.88200000
_cell_length_b   20.87200000
_cell_length_c   20.87200000
_cell_angle_alpha   90.00000000
_cell_angle_beta   90.00000000
_cell_angle_gamma   90.00000000
_symmetry_Int_Tables_number   1
_chemical_formula_structural   CdH7C9(NO)3
_chemical_formula_sum   'Cd8 H56 C72 N24 O24'
_cell_volume   2562.43673869
_cell_formula_units_Z   8
loop_
 _symmetry_equiv_pos_site_id
 _symmetry_equiv_pos_as_xyz
  1  'x, y, z'
loop_
 _atom_site_type_symbol
 _atom_site_label
 _atom_site_symmetry_multiplicity
 _atom_site_fract_x
 _atom_site_fract_y
 _atom_site_fract_z
 _atom_site_occupancy
 _atom_site_charge
  Cd  Cd1  1  0.459970  0.768030  0.170120  1.0  1.0107
  Cd  Cd2  1  0.540030  0.231970  0.829880  1.0  1.011
  Cd  Cd3  1  0.540030  0.268030  0.670120  1.0  1.0111
  Cd  Cd4  1  0.959970  0.670120  0.231970  1.0  1.0107
  Cd  Cd5  1  0.459970  0.731970  0.329880  1.0  1.0106
  Cd  Cd6  1  0.040030  0.170120  0.731970  1.0  1.0111
  Cd  Cd7  1  0.040030  0.329880  0.768030  1.0  1.0109
  Cd  Cd8  1  0.959970  0.829880  0.268030  1.0  1.0105
  H  H9  1  0.110100  0.149100  0.985400  1.0  0.0884
  H  H10  1  0.649600  0.450300  0.727500  1.0  0.094
  H  H11  1  0.987600  0.992200  0.429000  1.0  0.085
  H  H12  1  0.382400  0.507900  0.577300  1.0  0.1206
  H  H13  1  0.411000  0.845000  0.277000  1.0  0.3881
  H  H14  1  0.761200  0.932700  0.144900  1.0  0.1086
  H  H15  1  0.149600  0.227500  0.549700  1.0  0.0957
  H  H16  1  0.274100  0.071900  0.414500  1.0  0.1194
  H  H17  1  0.117600  0.922700  0.507900  1.0  0.1198
  H  H18  1  0.882400  0.077300  0.492100  1.0  0.1192
  H  H19  1  0.882400  0.422700  0.007900  1.0  0.1201
  H  H20  1  0.149600  0.272500  0.950300  1.0  0.0957
  H  H21  1  0.610100  0.485400  0.850900  1.0  0.0864
  H  H22  1  0.089000  0.277000  0.655000  1.0  0.3854
  H  H23  1  0.738800  0.355100  0.932700  1.0  0.1084
  H  H24  1  0.110100  0.350900  0.514600  1.0  0.088
  H  H25  1  0.117600  0.577300  0.992100  1.0  0.1193
  H  H26  1  0.261200  0.855100  0.432700  1.0  0.1084
  H  H27  1  0.382400  0.992100  0.922700  1.0  0.1201
  H  H28  1  0.987600  0.507800  0.071000  1.0  0.0845
  H  H29  1  0.774100  0.585500  0.571900  1.0  0.1196
  H  H30  1  0.589000  0.345000  0.777000  1.0  0.3871
  H  H31  1  0.261200  0.644900  0.067300  1.0  0.1086
  H  H32  1  0.617600  0.492100  0.422700  1.0  0.1197
  H  H33  1  0.512400  0.071000  0.992200  1.0  0.0833
  H  H34  1  0.487600  0.571000  0.492200  1.0  0.0837
  H  H35  1  0.350400  0.549700  0.272500  1.0  0.0939
  H  H36  1  0.225900  0.085500  0.071900  1.0  0.1194
  H  H37  1  0.911000  0.777000  0.155000  1.0  0.3859
  H  H38  1  0.889900  0.850900  0.014600  1.0  0.0879
  H  H39  1  0.089000  0.223000  0.845000  1.0  0.385
  H  H40  1  0.389900  0.985400  0.350900  1.0  0.0865
  H  H41  1  0.012400  0.007800  0.571000  1.0  0.0841
  H  H42  1  0.738800  0.144900  0.567300  1.0  0.1087
  H  H43  1  0.850400  0.727500  0.049700  1.0  0.096
  H  H44  1  0.889900  0.649100  0.485400  1.0  0.0886
  H  H45  1  0.617600  0.007900  0.077300  1.0  0.1203
  H  H46  1  0.610100  0.014600  0.649100  1.0  0.0872
  H  H47  1  0.911000  0.723000  0.345000  1.0  0.3851
  H  H48  1  0.850400  0.772500  0.450300  1.0  0.0964
  H  H49  1  0.389900  0.514600  0.149100  1.0  0.0869
  H  H50  1  0.512400  0.429000  0.507800  1.0  0.0835
  H  H51  1  0.649600  0.049700  0.772500  1.0  0.0935
  H  H52  1  0.725900  0.928100  0.585500  1.0  0.1194
  H  H53  1  0.012400  0.492200  0.929000  1.0  0.0845
  H  H54  1  0.238800  0.432700  0.644900  1.0  0.1087
  H  H55  1  0.725900  0.571900  0.914500  1.0  0.1194
  H  H56  1  0.487600  0.929000  0.007800  1.0  0.0844
  H  H57  1  0.761200  0.567300  0.355100  1.0  0.1086
  H  H58  1  0.225900  0.414500  0.428100  1.0  0.119
  H  H59  1  0.350400  0.950300  0.227500  1.0  0.0946
  H  H60  1  0.274100  0.428100  0.085500  1.0  0.1196
  H  H61  1  0.411000  0.655000  0.223000  1.0  0.387
  H  H62  1  0.238800  0.067300  0.855100  1.0  0.1085
  H  H63  1  0.589000  0.155000  0.723000  1.0  0.3868
  H  H64  1  0.774100  0.914500  0.928100  1.0  0.119
  C  C65  1  0.904900  0.947200  0.156700  1.0  0.1679
  C  C66  1  0.659500  0.425200  0.491900  1.0  -0.062
  C  C67  1  0.340500  0.925200  0.991900  1.0  -0.0651
  C  C68  1  0.659500  0.074800  0.008100  1.0  -0.0718
  C  C69  1  0.507300  0.503700  0.879400  1.0  -0.0734
  C  C70  1  0.226800  0.542300  0.299300  1.0  0.2823
  C  C71  1  0.078600  0.082100  0.056100  1.0  -0.0951
  C  C72  1  0.221100  0.940600  0.536400  1.0  -0.2015
  C  C73  1  0.299100  0.019900  0.617000  1.0  -0.0179
  C  C74  1  0.568300  0.082300  0.458800  1.0  0.1486
  C  C75  1  0.340500  0.574800  0.508100  1.0  -0.0667
  C  C76  1  0.278900  0.536400  0.559400  1.0  -0.2008
  C  C77  1  0.773200  0.457700  0.700700  1.0  0.2846
  C  C78  1  0.931700  0.041200  0.082300  1.0  0.1497
  C  C79  1  0.278900  0.963600  0.940600  1.0  -0.1977
  C  C80  1  0.159500  0.508100  0.925200  1.0  -0.0737
  C  C81  1  0.273200  0.299300  0.957700  1.0  0.284
  C  C82  1  0.992700  0.879400  0.996300  1.0  -0.0778
  C  C83  1  0.799100  0.117000  0.980100  1.0  -0.0185
  C  C84  1  0.720600  0.342300  0.574900  1.0  0.6838
  C  C85  1  0.904900  0.552800  0.343300  1.0  0.1677
  C  C86  1  0.200900  0.617000  0.480100  1.0  -0.0183
  C  C87  1  0.726800  0.799300  0.457700  1.0  0.283
  C  C88  1  0.078600  0.417900  0.443900  1.0  -0.0988
  C  C89  1  0.799100  0.383000  0.519900  1.0  -0.0188
  C  C90  1  0.700900  0.519900  0.117000  1.0  -0.0177
  C  C91  1  0.568300  0.417700  0.041200  1.0  0.1482
  C  C92  1  0.421400  0.443900  0.082100  1.0  -0.1004
  C  C93  1  0.095100  0.052800  0.843300  1.0  0.168
  C  C94  1  0.726800  0.700700  0.042300  1.0  0.2827
  C  C95  1  0.931700  0.458800  0.417700  1.0  0.152
  C  C96  1  0.431700  0.582300  0.958800  1.0  0.1485
  C  C97  1  0.159500  0.991900  0.574800  1.0  -0.0655
  C  C98  1  0.578600  0.943900  0.582100  1.0  -0.0998
  C  C99  1  0.721100  0.463600  0.440600  1.0  -0.1986
  C  C100  1  0.720600  0.157700  0.925100  1.0  0.6838
  C  C101  1  0.068300  0.958800  0.917700  1.0  0.1518
  C  C102  1  0.068300  0.541200  0.582300  1.0  0.1499
  C  C103  1  0.279400  0.842300  0.074900  1.0  0.6836
  C  C104  1  0.007300  0.120600  0.003700  1.0  -0.0756
  C  C105  1  0.404900  0.843300  0.447200  1.0  0.1707
  C  C106  1  0.507300  0.996300  0.620600  1.0  -0.071
  C  C107  1  0.778900  0.059400  0.463600  1.0  -0.1996
  C  C108  1  0.595100  0.156700  0.552800  1.0  0.1719
  C  C109  1  0.431700  0.917700  0.541200  1.0  0.1488
  C  C110  1  0.404900  0.656700  0.052800  1.0  0.1712
  C  C111  1  0.220600  0.425100  0.842300  1.0  0.6846
  C  C112  1  0.095100  0.447200  0.656700  1.0  0.1686
  C  C113  1  0.492700  0.496300  0.120600  1.0  -0.0705
  C  C114  1  0.273200  0.200700  0.542300  1.0  0.2833
  C  C115  1  0.779400  0.925100  0.342300  1.0  0.6858
  C  C116  1  0.299100  0.480100  0.883000  1.0  -0.0196
  C  C117  1  0.200900  0.883000  0.019900  1.0  -0.0191
  C  C118  1  0.279400  0.657700  0.425100  1.0  0.6831
  C  C119  1  0.221100  0.559400  0.963600  1.0  -0.2015
  C  C120  1  0.421400  0.056100  0.417900  1.0  -0.0972
  C  C121  1  0.992700  0.620600  0.503700  1.0  -0.0748
  C  C122  1  0.007300  0.379400  0.496300  1.0  -0.0787
  C  C123  1  0.721100  0.036400  0.059400  1.0  -0.2029
  C  C124  1  0.779400  0.574900  0.157700  1.0  0.6844
  C  C125  1  0.778900  0.440600  0.036400  1.0  -0.1998
  C  C126  1  0.773200  0.042300  0.799300  1.0  0.2836
  C  C127  1  0.578600  0.556100  0.917900  1.0  -0.0967
  C  C128  1  0.921400  0.582100  0.556100  1.0  -0.0954
  C  C129  1  0.595100  0.343300  0.947200  1.0  0.1714
  C  C130  1  0.921400  0.917900  0.943900  1.0  -0.0984
  C  C131  1  0.226800  0.957700  0.200700  1.0  0.2843
  C  C132  1  0.220600  0.074900  0.657700  1.0  0.6845
  C  C133  1  0.700900  0.980100  0.383000  1.0  -0.02
  C  C134  1  0.840500  0.008100  0.425200  1.0  -0.0677
  C  C135  1  0.492700  0.003700  0.379400  1.0  -0.0727
  C  C136  1  0.840500  0.491900  0.074800  1.0  -0.0745
  N  N137  1  0.536000  0.700200  0.079900  1.0  -0.4252
  N  N138  1  0.964000  0.079900  0.799800  1.0  -0.4215
  N  N139  1  0.717600  0.659300  0.994300  1.0  -0.3886
  N  N140  1  0.282400  0.159300  0.494300  1.0  -0.3967
  N  N141  1  0.036000  0.579900  0.299800  1.0  -0.4219
  N  N142  1  0.036000  0.920100  0.200200  1.0  -0.4224
  N  N143  1  0.491100  0.132000  0.501600  1.0  0.1361
  N  N144  1  0.717600  0.840700  0.505700  1.0  -0.3882
  N  N145  1  0.964000  0.420100  0.700200  1.0  -0.4221
  N  N146  1  0.217600  0.494300  0.340700  1.0  -0.389
  N  N147  1  0.491100  0.368000  0.998400  1.0  0.1371
  N  N148  1  0.782400  0.994300  0.840700  1.0  -0.3992
  N  N149  1  0.508900  0.632000  0.001600  1.0  0.1366
  N  N150  1  0.008900  0.501600  0.368000  1.0  0.1363
  N  N151  1  0.464000  0.200200  0.579900  1.0  -0.425
  N  N152  1  0.217600  0.005700  0.159300  1.0  -0.3974
  N  N153  1  0.008900  0.998400  0.132000  1.0  0.1397
  N  N154  1  0.282400  0.340700  0.005700  1.0  -0.3893
  N  N155  1  0.464000  0.299800  0.920100  1.0  -0.4229
  N  N156  1  0.782400  0.505700  0.659300  1.0  -0.3889
  N  N157  1  0.991100  0.498400  0.632000  1.0  0.1389
  N  N158  1  0.508900  0.868000  0.498400  1.0  0.1386
  N  N159  1  0.991100  0.001600  0.868000  1.0  0.1363
  N  N160  1  0.536000  0.799800  0.420100  1.0  -0.4232
  O  O161  1  0.845600  0.298900  0.595600  1.0  -0.6354
  O  O162  1  0.834600  0.733400  0.312420  1.0  -0.9143
  O  O163  1  0.029800  0.400100  0.855200  1.0  -0.6142
  O  O164  1  0.334600  0.687580  0.233400  1.0  -0.9114
  O  O165  1  0.665400  0.187580  0.733400  1.0  -0.9135
  O  O166  1  0.470200  0.644800  0.400100  1.0  -0.6138
  O  O167  1  0.970200  0.599900  0.144800  1.0  -0.6132
  O  O168  1  0.654400  0.904400  0.298900  1.0  -0.6321
  O  O169  1  0.345600  0.095600  0.701100  1.0  -0.6316
  O  O170  1  0.165400  0.266600  0.687580  1.0  -0.9142
  O  O171  1  0.470200  0.855200  0.099900  1.0  -0.6144
  O  O172  1  0.970200  0.900100  0.355200  1.0  -0.6143
  O  O173  1  0.529800  0.144800  0.900100  1.0  -0.6139
  O  O174  1  0.654400  0.595600  0.201100  1.0  -0.6334
  O  O175  1  0.529800  0.355200  0.599900  1.0  -0.6148
  O  O176  1  0.029800  0.099900  0.644800  1.0  -0.6129
  O  O177  1  0.154400  0.701100  0.404400  1.0  -0.6348
  O  O178  1  0.165400  0.233400  0.812420  1.0  -0.9164
  O  O179  1  0.345600  0.404400  0.798900  1.0  -0.6321
  O  O180  1  0.665400  0.312420  0.766600  1.0  -0.9127
  O  O181  1  0.154400  0.798900  0.095600  1.0  -0.6353
  O  O182  1  0.845600  0.201100  0.904400  1.0  -0.6341
  O  O183  1  0.334600  0.812420  0.266600  1.0  -0.913
  O  O184  1  0.834600  0.766600  0.187580  1.0  -0.9151
