# generated using pymatgen
data_CdH7C9(NO)3
_symmetry_space_group_name_H-M   'P 1'
_cell_length_a   21.23000000
_cell_length_b   21.23000000
_cell_length_c   6.02900000
_cell_angle_alpha   90.00000000
_cell_angle_beta   90.00000000
_cell_angle_gamma   90.00000000
_symmetry_Int_Tables_number   1
_chemical_formula_structural   CdH7C9(NO)3
_chemical_formula_sum   'Cd8 H56 C72 N24 O24'
_cell_volume   2717.34807410
_cell_formula_units_Z   8
loop_
 _symmetry_equiv_pos_site_id
 _symmetry_equiv_pos_as_xyz
  1  'x, y, z'
loop_
 _atom_site_type_symbol
 _atom_site_label
 _atom_site_symmetry_multiplicity
 _atom_site_fract_x
 _atom_site_fract_y
 _atom_site_fract_z
 _atom_site_occupancy
 _atom_site_charge
  Cd  Cd1  1  0.329810  0.769360  0.963410  1.0  1.0645
  Cd  Cd2  1  0.170190  0.730640  0.963410  1.0  1.0648
  Cd  Cd3  1  0.230640  0.829810  0.463410  1.0  1.0646
  Cd  Cd4  1  0.269360  0.670190  0.463410  1.0  1.0645
  Cd  Cd5  1  0.670190  0.230640  0.036590  1.0  1.0644
  Cd  Cd6  1  0.829810  0.269360  0.036590  1.0  1.0643
  Cd  Cd7  1  0.769360  0.170190  0.536590  1.0  1.0641
  Cd  Cd8  1  0.730640  0.329810  0.536590  1.0  1.0642
  H  H9  1  0.347000  0.797000  0.340000  1.0  0.3616
  H  H10  1  0.496600  0.923700  0.992900  1.0  0.0964
  H  H11  1  0.577600  0.993800  0.879800  1.0  0.1336
  H  H12  1  0.565400  0.917200  0.278700  1.0  0.1059
  H  H13  1  0.488100  0.851700  0.399200  1.0  0.0936
  H  H14  1  0.647200  0.064000  0.735800  1.0  0.1186
  H  H15  1  0.728500  0.048300  0.151000  1.0  0.1112
  H  H16  1  0.153000  0.703000  0.340000  1.0  0.3613
  H  H17  1  0.003400  0.576300  0.992900  1.0  0.097
  H  H18  1  0.922400  0.506200  0.879800  1.0  0.1337
  H  H19  1  0.934600  0.582800  0.278700  1.0  0.1061
  H  H20  1  0.011900  0.648300  0.399200  1.0  0.0936
  H  H21  1  0.852800  0.436000  0.735800  1.0  0.1185
  H  H22  1  0.771500  0.451700  0.151000  1.0  0.1109
  H  H23  1  0.203000  0.847000  0.840000  1.0  0.362
  H  H24  1  0.076300  0.996600  0.492900  1.0  0.0964
  H  H25  1  0.006200  0.077600  0.379800  1.0  0.1336
  H  H26  1  0.082800  0.065400  0.778700  1.0  0.1055
  H  H27  1  0.148300  0.988100  0.899200  1.0  0.093
  H  H28  1  0.936000  0.147200  0.235800  1.0  0.1182
  H  H29  1  0.951700  0.228500  0.651000  1.0  0.1112
  H  H30  1  0.297000  0.653000  0.840000  1.0  0.3626
  H  H31  1  0.423700  0.503400  0.492900  1.0  0.0975
  H  H32  1  0.493800  0.422400  0.379800  1.0  0.1345
  H  H33  1  0.417200  0.434600  0.778700  1.0  0.1057
  H  H34  1  0.351700  0.511900  0.899200  1.0  0.0933
  H  H35  1  0.564000  0.352800  0.235800  1.0  0.1182
  H  H36  1  0.548300  0.271500  0.651000  1.0  0.1108
  H  H37  1  0.653000  0.203000  0.660000  1.0  0.3614
  H  H38  1  0.503400  0.076300  0.007100  1.0  0.0978
  H  H39  1  0.422400  0.006200  0.120200  1.0  0.1334
  H  H40  1  0.434600  0.082800  0.721300  1.0  0.1064
  H  H41  1  0.511900  0.148300  0.600800  1.0  0.0936
  H  H42  1  0.352800  0.936000  0.264200  1.0  0.1183
  H  H43  1  0.271500  0.951700  0.849000  1.0  0.1111
  H  H44  1  0.847000  0.297000  0.660000  1.0  0.3613
  H  H45  1  0.996600  0.423700  0.007100  1.0  0.0964
  H  H46  1  0.077600  0.493800  0.120200  1.0  0.1334
  H  H47  1  0.065400  0.417200  0.721300  1.0  0.1062
  H  H48  1  0.988100  0.351700  0.600800  1.0  0.0937
  H  H49  1  0.147200  0.564000  0.264200  1.0  0.1184
  H  H50  1  0.228500  0.548300  0.849000  1.0  0.1115
  H  H51  1  0.797000  0.153000  0.160000  1.0  0.3624
  H  H52  1  0.923700  0.003400  0.507100  1.0  0.0983
  H  H53  1  0.993800  0.922400  0.620200  1.0  0.1338
  H  H54  1  0.917200  0.934600  0.221300  1.0  0.1068
  H  H55  1  0.851700  0.011900  0.100800  1.0  0.0934
  H  H56  1  0.064000  0.852800  0.764200  1.0  0.1178
  H  H57  1  0.048300  0.771500  0.349000  1.0  0.1114
  H  H58  1  0.703000  0.347000  0.160000  1.0  0.362
  H  H59  1  0.576300  0.496600  0.507100  1.0  0.0968
  H  H60  1  0.506200  0.577600  0.620200  1.0  0.1335
  H  H61  1  0.582800  0.565400  0.221300  1.0  0.1051
  H  H62  1  0.648300  0.488100  0.100800  1.0  0.093
  H  H63  1  0.436000  0.647200  0.764200  1.0  0.1183
  H  H64  1  0.451700  0.728500  0.349000  1.0  0.1105
  C  C65  1  0.424900  0.844800  0.783000  1.0  0.6642
  C  C66  1  0.482100  0.882100  0.707000  1.0  -0.0488
  C  C67  1  0.510400  0.922400  0.847000  1.0  -0.0893
  C  C68  1  0.561500  0.964100  0.781000  1.0  -0.144
  C  C69  1  0.585600  0.958400  0.567000  1.0  0.091
  C  C70  1  0.553900  0.918500  0.427000  1.0  -0.102
  C  C71  1  0.505500  0.880200  0.499000  1.0  -0.0077
  C  C72  1  0.658600  0.050500  0.595000  1.0  0.1325
  C  C73  1  0.702900  0.041000  0.274000  1.0  0.2659
  C  C74  1  0.075100  0.655200  0.783000  1.0  0.6636
  C  C75  1  0.017900  0.617900  0.707000  1.0  -0.0475
  C  C76  1  0.989600  0.577600  0.847000  1.0  -0.09
  C  C77  1  0.938500  0.535900  0.781000  1.0  -0.1423
  C  C78  1  0.914400  0.541600  0.567000  1.0  0.0951
  C  C79  1  0.946100  0.581500  0.427000  1.0  -0.103
  C  C80  1  0.994500  0.619800  0.499000  1.0  -0.0105
  C  C81  1  0.841400  0.449500  0.595000  1.0  0.1319
  C  C82  1  0.797100  0.459000  0.274000  1.0  0.2658
  C  C83  1  0.155200  0.924900  0.283000  1.0  0.6649
  C  C84  1  0.117900  0.982100  0.207000  1.0  -0.0498
  C  C85  1  0.077600  0.010400  0.347000  1.0  -0.0893
  C  C86  1  0.035900  0.061500  0.281000  1.0  -0.1437
  C  C87  1  0.041600  0.085600  0.067000  1.0  0.0951
  C  C88  1  0.081500  0.053900  0.927000  1.0  -0.1039
  C  C89  1  0.119800  0.005500  0.999000  1.0  -0.0072
  C  C90  1  0.949500  0.158600  0.095000  1.0  0.1313
  C  C91  1  0.959000  0.202900  0.774000  1.0  0.2652
  C  C92  1  0.344800  0.575100  0.283000  1.0  0.6647
  C  C93  1  0.382100  0.517900  0.207000  1.0  -0.0494
  C  C94  1  0.422400  0.489600  0.347000  1.0  -0.0898
  C  C95  1  0.464100  0.438500  0.281000  1.0  -0.1452
  C  C96  1  0.458400  0.414400  0.067000  1.0  0.0947
  C  C97  1  0.418500  0.446100  0.927000  1.0  -0.1014
  C  C98  1  0.380200  0.494500  0.999000  1.0  -0.0057
  C  C99  1  0.550500  0.341400  0.095000  1.0  0.1318
  C  C100  1  0.541000  0.297100  0.774000  1.0  0.2659
  C  C101  1  0.575100  0.155200  0.217000  1.0  0.6635
  C  C102  1  0.517900  0.117900  0.293000  1.0  -0.0474
  C  C103  1  0.489600  0.077600  0.153000  1.0  -0.0908
  C  C104  1  0.438500  0.035900  0.219000  1.0  -0.1427
  C  C105  1  0.414400  0.041600  0.433000  1.0  0.0953
  C  C106  1  0.446100  0.081500  0.573000  1.0  -0.1029
  C  C107  1  0.494500  0.119800  0.501000  1.0  -0.0104
  C  C108  1  0.341400  0.949500  0.405000  1.0  0.1319
  C  C109  1  0.297100  0.959000  0.726000  1.0  0.2654
  C  C110  1  0.924900  0.344800  0.217000  1.0  0.6638
  C  C111  1  0.982100  0.382100  0.293000  1.0  -0.0487
  C  C112  1  0.010400  0.422400  0.153000  1.0  -0.0884
  C  C113  1  0.061500  0.464100  0.219000  1.0  -0.145
  C  C114  1  0.085600  0.458400  0.433000  1.0  0.0907
  C  C115  1  0.053900  0.418500  0.573000  1.0  -0.1043
  C  C116  1  0.005500  0.380200  0.501000  1.0  -0.0071
  C  C117  1  0.158600  0.550500  0.405000  1.0  0.1333
  C  C118  1  0.202900  0.541000  0.726000  1.0  0.2661
  C  C119  1  0.844800  0.075100  0.717000  1.0  0.6647
  C  C120  1  0.882100  0.017900  0.793000  1.0  -0.0497
  C  C121  1  0.922400  0.989600  0.653000  1.0  -0.0901
  C  C122  1  0.964100  0.938500  0.719000  1.0  -0.1461
  C  C123  1  0.958400  0.914400  0.933000  1.0  0.0946
  C  C124  1  0.918500  0.946100  0.073000  1.0  -0.1027
  C  C125  1  0.880200  0.994500  0.001000  1.0  -0.0056
  C  C126  1  0.050500  0.841400  0.905000  1.0  0.1313
  C  C127  1  0.041000  0.797100  0.226000  1.0  0.2665
  C  C128  1  0.655200  0.424900  0.717000  1.0  0.6648
  C  C129  1  0.617900  0.482100  0.793000  1.0  -0.0494
  C  C130  1  0.577600  0.510400  0.653000  1.0  -0.0889
  C  C131  1  0.535900  0.561500  0.719000  1.0  -0.1435
  C  C132  1  0.541600  0.585600  0.933000  1.0  0.0951
  C  C133  1  0.581500  0.553900  0.073000  1.0  -0.1049
  C  C134  1  0.619800  0.505500  0.001000  1.0  -0.0068
  C  C135  1  0.449500  0.658600  0.905000  1.0  0.1322
  C  C136  1  0.459000  0.702900  0.226000  1.0  0.2649
  N  N137  1  0.635400  0.000900  0.495500  1.0  0.0863
  N  N138  1  0.663200  0.992200  0.286500  1.0  -0.3874
  N  N139  1  0.702600  0.079900  0.460300  1.0  -0.4531
  N  N140  1  0.864600  0.499100  0.495500  1.0  0.0851
  N  N141  1  0.836800  0.507800  0.286500  1.0  -0.3892
  N  N142  1  0.797400  0.420100  0.460300  1.0  -0.4549
  N  N143  1  0.999100  0.135400  0.995500  1.0  0.0846
  N  N144  1  0.007800  0.163200  0.786500  1.0  -0.3833
  N  N145  1  0.920100  0.202600  0.960300  1.0  -0.4553
  N  N146  1  0.500900  0.364600  0.995500  1.0  0.0834
  N  N147  1  0.492200  0.336800  0.786500  1.0  -0.3842
  N  N148  1  0.579900  0.297400  0.960300  1.0  -0.4551
  N  N149  1  0.364600  0.999100  0.504500  1.0  0.0853
  N  N150  1  0.336800  0.007800  0.713500  1.0  -0.3883
  N  N151  1  0.297400  0.920100  0.539700  1.0  -0.4552
  N  N152  1  0.135400  0.500900  0.504500  1.0  0.0866
  N  N153  1  0.163200  0.492200  0.713500  1.0  -0.3891
  N  N154  1  0.202600  0.579900  0.539700  1.0  -0.4534
  N  N155  1  0.000900  0.864600  0.004500  1.0  0.0836
  N  N156  1  0.992200  0.836800  0.213500  1.0  -0.3845
  N  N157  1  0.079900  0.797400  0.039700  1.0  -0.4554
  N  N158  1  0.499100  0.635400  0.004500  1.0  0.0849
  N  N159  1  0.507800  0.663200  0.213500  1.0  -0.3841
  N  N160  1  0.420100  0.702600  0.039700  1.0  -0.4552
  O  O161  1  0.400200  0.856700  0.974900  1.0  -0.6201
  O  O162  1  0.404000  0.800900  0.658900  1.0  -0.6394
  O  O163  1  0.312800  0.767400  0.342200  1.0  -0.8332
  O  O164  1  0.099800  0.643300  0.974900  1.0  -0.6206
  O  O165  1  0.096000  0.699100  0.658900  1.0  -0.6384
  O  O166  1  0.187200  0.732600  0.342200  1.0  -0.8323
  O  O167  1  0.143300  0.900200  0.474900  1.0  -0.6231
  O  O168  1  0.199100  0.904000  0.158900  1.0  -0.6388
  O  O169  1  0.232600  0.812800  0.842200  1.0  -0.8311
  O  O170  1  0.356700  0.599800  0.474900  1.0  -0.6225
  O  O171  1  0.300900  0.596000  0.158900  1.0  -0.6398
  O  O172  1  0.267400  0.687200  0.842200  1.0  -0.8312
  O  O173  1  0.599800  0.143300  0.025100  1.0  -0.6201
  O  O174  1  0.596000  0.199100  0.341100  1.0  -0.6388
  O  O175  1  0.687200  0.232600  0.657800  1.0  -0.8319
  O  O176  1  0.900200  0.356700  0.025100  1.0  -0.6199
  O  O177  1  0.904000  0.300900  0.341100  1.0  -0.6394
  O  O178  1  0.812800  0.267400  0.657800  1.0  -0.8329
  O  O179  1  0.856700  0.099800  0.525100  1.0  -0.6222
  O  O180  1  0.800900  0.096000  0.841100  1.0  -0.6397
  O  O181  1  0.767400  0.187200  0.157800  1.0  -0.8309
  O  O182  1  0.643300  0.400200  0.525100  1.0  -0.6228
  O  O183  1  0.699100  0.404000  0.841100  1.0  -0.6389
  O  O184  1  0.732600  0.312800  0.157800  1.0  -0.8314
