# generated using pymatgen
data_Zn9(PO4)8
_symmetry_space_group_name_H-M   'P 1'
_cell_length_a   14.51200000
_cell_length_b   14.51200000
_cell_length_c   8.91400000
_cell_angle_alpha   90.00000000
_cell_angle_beta   90.00000000
_cell_angle_gamma   90.00000000
_symmetry_Int_Tables_number   1
_chemical_formula_structural   Zn9(PO4)8
_chemical_formula_sum   'Zn18 P16 O64'
_cell_volume   1877.27185562
_cell_formula_units_Z   2
loop_
 _symmetry_equiv_pos_site_id
 _symmetry_equiv_pos_as_xyz
  1  'x, y, z'
loop_
 _atom_site_type_symbol
 _atom_site_label
 _atom_site_symmetry_multiplicity
 _atom_site_fract_x
 _atom_site_fract_y
 _atom_site_fract_z
 _atom_site_occupancy
 _atom_site_charge
  Zn  Zn1  1  0.503810  0.636290  0.389930  1.0  1.0109
  Zn  Zn2  1  0.502930  0.872460  0.707780  1.0  1.2173
  Zn  Zn3  1  0.366570  0.014070  0.209390  1.0  1.2072
  Zn  Zn4  1  0.130880  0.021260  0.887210  1.0  1.1081
  Zn  Zn5  1  0.496190  0.363710  0.389930  1.0  1.0089
  Zn  Zn6  1  0.497070  0.127540  0.707780  1.0  1.2167
  Zn  Zn7  1  0.633430  0.985930  0.209390  1.0  1.2068
  Zn  Zn8  1  0.869120  0.978740  0.887210  1.0  1.1076
  Zn  Zn9  1  0.636290  0.496190  0.610070  1.0  1.0068
  Zn  Zn10  1  0.872460  0.497070  0.292220  1.0  1.2152
  Zn  Zn11  1  0.014070  0.633430  0.790610  1.0  1.2091
  Zn  Zn12  1  0.021260  0.869120  0.112790  1.0  1.1098
  Zn  Zn13  1  0.363710  0.503810  0.610070  1.0  1.0063
  Zn  Zn14  1  0.127540  0.502930  0.292220  1.0  1.2148
  Zn  Zn15  1  0.985930  0.366570  0.790610  1.0  1.2084
  Zn  Zn16  1  0.978740  0.130880  0.112790  1.0  1.1105
  Zn  Zn17  1  0.000000  0.000000  0.500000  1.0  1.135
  Zn  Zn18  1  0.500000  0.500000  0.000000  1.0  1.1039
  P  P19  1  0.638830  0.496530  0.257920  1.0  1.8199
  P  P20  1  0.348010  0.990710  0.856900  1.0  1.8545
  P  P21  1  0.489470  0.856660  0.354900  1.0  1.8384
  P  P22  1  0.140690  0.026830  0.242120  1.0  1.7596
  P  P23  1  0.361170  0.503470  0.257920  1.0  1.8163
  P  P24  1  0.651990  0.009290  0.856900  1.0  1.8543
  P  P25  1  0.510530  0.143340  0.354900  1.0  1.8376
  P  P26  1  0.859310  0.973170  0.242120  1.0  1.7545
  P  P27  1  0.496530  0.361170  0.742080  1.0  1.821
  P  P28  1  0.990710  0.651990  0.143100  1.0  1.8542
  P  P29  1  0.856660  0.510530  0.645100  1.0  1.8382
  P  P30  1  0.026830  0.859310  0.757880  1.0  1.7591
  P  P31  1  0.503470  0.638830  0.742080  1.0  1.8203
  P  P32  1  0.009290  0.348010  0.143100  1.0  1.8546
  P  P33  1  0.143340  0.489470  0.645100  1.0  1.8381
  P  P34  1  0.973170  0.140690  0.757880  1.0  1.7603
  O  O35  1  0.380100  0.912600  0.753900  1.0  -0.7259
  O  O36  1  0.536500  0.874000  0.503500  1.0  -0.8042
  O  O37  1  0.406900  0.076000  0.838500  1.0  -0.7923
  O  O38  1  0.349300  0.956900  0.017400  1.0  -0.7448
  O  O39  1  0.399300  0.910900  0.342100  1.0  -0.7173
  O  O40  1  0.250100  0.013000  0.809000  1.0  -0.7708
  O  O41  1  0.607400  0.596500  0.267800  1.0  -0.7292
  O  O42  1  0.740400  0.490200  0.234800  1.0  -0.799
  O  O43  1  0.609100  0.445900  0.405400  1.0  -0.9359
  O  O44  1  0.590500  0.445000  0.130600  1.0  -0.7338
  O  O45  1  0.554200  0.881400  0.225600  1.0  -0.7162
  O  O46  1  0.460500  0.755400  0.338400  1.0  -0.7734
  O  O47  1  0.241200  0.049100  0.266600  1.0  -0.774
  O  O48  1  0.082400  0.068300  0.369900  1.0  -0.7437
  O  O49  1  0.103300  0.071000  0.093400  1.0  -0.9012
  O  O50  1  0.123000  0.923100  0.228700  1.0  -0.7148
  O  O51  1  0.619900  0.087400  0.753900  1.0  -0.7259
  O  O52  1  0.463500  0.126000  0.503500  1.0  -0.8037
  O  O53  1  0.593100  0.924000  0.838500  1.0  -0.7918
  O  O54  1  0.650700  0.043100  0.017400  1.0  -0.7451
  O  O55  1  0.600700  0.089100  0.342100  1.0  -0.7171
  O  O56  1  0.749900  0.987000  0.809000  1.0  -0.7715
  O  O57  1  0.392600  0.403500  0.267800  1.0  -0.7292
  O  O58  1  0.259600  0.509800  0.234800  1.0  -0.7998
  O  O59  1  0.390900  0.554100  0.405400  1.0  -0.935
  O  O60  1  0.409500  0.555000  0.130600  1.0  -0.7342
  O  O61  1  0.445800  0.118600  0.225600  1.0  -0.7163
  O  O62  1  0.539500  0.244600  0.338400  1.0  -0.7711
  O  O63  1  0.758800  0.950900  0.266600  1.0  -0.7729
  O  O64  1  0.917600  0.931700  0.369900  1.0  -0.7434
  O  O65  1  0.896700  0.929000  0.093400  1.0  -0.9003
  O  O66  1  0.877000  0.076900  0.228700  1.0  -0.7159
  O  O67  1  0.912600  0.619900  0.246100  1.0  -0.7248
  O  O68  1  0.874000  0.463500  0.496500  1.0  -0.8059
  O  O69  1  0.076000  0.593100  0.161500  1.0  -0.7889
  O  O70  1  0.956900  0.650700  0.982600  1.0  -0.7443
  O  O71  1  0.910900  0.600700  0.657900  1.0  -0.7189
  O  O72  1  0.013000  0.749900  0.191000  1.0  -0.7707
  O  O73  1  0.596500  0.392600  0.732200  1.0  -0.726
  O  O74  1  0.490200  0.259600  0.765200  1.0  -0.8024
  O  O75  1  0.445900  0.390900  0.594600  1.0  -0.9342
  O  O76  1  0.445000  0.409500  0.869400  1.0  -0.7333
  O  O77  1  0.881400  0.445800  0.774400  1.0  -0.7177
  O  O78  1  0.755400  0.539500  0.661600  1.0  -0.7735
  O  O79  1  0.049100  0.758800  0.733400  1.0  -0.771
  O  O80  1  0.068300  0.917600  0.630100  1.0  -0.7388
  O  O81  1  0.071000  0.896700  0.906600  1.0  -0.9012
  O  O82  1  0.923100  0.877000  0.771300  1.0  -0.7134
  O  O83  1  0.087400  0.380100  0.246100  1.0  -0.7258
  O  O84  1  0.126000  0.536500  0.496500  1.0  -0.806
  O  O85  1  0.924000  0.406900  0.161500  1.0  -0.79
  O  O86  1  0.043100  0.349300  0.982600  1.0  -0.7444
  O  O87  1  0.089100  0.399300  0.657900  1.0  -0.7192
  O  O88  1  0.987000  0.250100  0.191000  1.0  -0.7718
  O  O89  1  0.403500  0.607400  0.732200  1.0  -0.7255
  O  O90  1  0.509800  0.740400  0.765200  1.0  -0.8039
  O  O91  1  0.554100  0.609100  0.594600  1.0  -0.9338
  O  O92  1  0.555000  0.590500  0.869400  1.0  -0.7328
  O  O93  1  0.118600  0.554200  0.774400  1.0  -0.7168
  O  O94  1  0.244600  0.460500  0.661600  1.0  -0.7725
  O  O95  1  0.950900  0.241200  0.733400  1.0  -0.7717
  O  O96  1  0.931700  0.082400  0.630100  1.0  -0.7394
  O  O97  1  0.929000  0.103300  0.906600  1.0  -0.9014
  O  O98  1  0.076900  0.123000  0.771300  1.0  -0.7145
