# generated using pymatgen
data_ZnH18(C6N)3
_symmetry_space_group_name_H-M   'P 1'
_cell_length_a   13.22490000
_cell_length_b   13.29890000
_cell_length_c   20.34880000
_cell_angle_alpha   81.26600000
_cell_angle_beta   81.42600000
_cell_angle_gamma   81.24600000
_symmetry_Int_Tables_number   1
_chemical_formula_structural   ZnH18(C6N)3
_chemical_formula_sum   'Zn6 H108 C108 N18'
_cell_volume   3466.97777949
_cell_formula_units_Z   6
loop_
 _symmetry_equiv_pos_site_id
 _symmetry_equiv_pos_as_xyz
  1  'x, y, z'
loop_
 _atom_site_type_symbol
 _atom_site_label
 _atom_site_symmetry_multiplicity
 _atom_site_fract_x
 _atom_site_fract_y
 _atom_site_fract_z
 _atom_site_occupancy
 _atom_site_charge
  Zn  Zn1  1  0.843080  0.735290  0.295240  1.0  0.4204
  Zn  Zn2  1  0.294040  0.175300  0.033350  1.0  0.3971
  Zn  Zn3  1  0.767530  0.811680  0.609810  1.0  0.4908
  Zn  Zn4  1  0.156920  0.264710  0.704760  1.0  0.4207
  Zn  Zn5  1  0.705960  0.824700  0.966640  1.0  0.3919
  Zn  Zn6  1  0.232470  0.188320  0.390190  1.0  0.495
  H  H7  1  0.787700  0.953600  0.329800  1.0  0.0635
  H  H8  1  0.654700  0.048800  0.391500  1.0  0.1153
  H  H9  1  0.524300  0.789300  0.453700  1.0  0.1096
  H  H10  1  0.659600  0.701000  0.390000  1.0  0.0654
  H  H11  1  0.468600  0.058800  0.440500  1.0  0.0832
  H  H12  1  0.424700  0.955200  0.475600  1.0  0.0796
  H  H13  1  0.768400  0.934000  0.205700  1.0  0.0705
  H  H14  1  0.830700  0.038300  0.110600  1.0  0.1221
  H  H15  1  0.095000  0.839900  0.099400  1.0  0.1181
  H  H16  1  0.027400  0.742300  0.195000  1.0  0.0738
  H  H17  1  0.089000  0.010700  0.030300  1.0  0.0795
  H  H18  1  0.984300  0.089100  0.034600  1.0  0.0855
  H  H19  1  0.778700  0.525500  0.335800  1.0  0.0821
  H  H20  1  0.674000  0.422000  0.303800  1.0  0.0969
  H  H21  1  0.604400  0.645400  0.152700  1.0  0.1033
  H  H22  1  0.714500  0.740700  0.185500  1.0  0.0724
  H  H23  1  0.485900  0.495000  0.204000  1.0  0.0954
  H  H24  1  0.550800  0.394500  0.238600  1.0  0.0788
  H  H25  1  0.358600  0.199000  0.162500  1.0  0.0641
  H  H26  1  0.465500  0.289000  0.203600  1.0  0.1025
  H  H27  1  0.573000  0.392500  0.012800  1.0  0.1055
  H  H28  1  0.469500  0.294700  0.976500  1.0  0.0712
  H  H29  1  0.600100  0.484700  0.102700  1.0  0.0995
  H  H30  1  0.664900  0.384400  0.137200  1.0  0.1115
  H  H31  1  0.312200  0.983200  0.128600  1.0  0.0649
  H  H32  1  0.223800  0.898300  0.221700  1.0  0.1163
  H  H33  1  0.997400  0.138200  0.218800  1.0  0.1143
  H  H34  1  0.092900  0.219800  0.126700  1.0  0.0684
  H  H35  1  0.056500  0.877700  0.289000  1.0  0.0844
  H  H36  1  0.964500  0.971100  0.285700  1.0  0.0819
  H  H37  1  0.956900  0.730200  0.515200  1.0  0.0716
  H  H38  1  0.066000  0.791900  0.422800  1.0  0.1172
  H  H39  1  0.890600  0.068500  0.423300  1.0  0.1027
  H  H40  1  0.788000  0.001200  0.516700  1.0  0.0748
  H  H41  1  0.135100  0.954700  0.360600  1.0  0.0882
  H  H42  1  0.054600  0.057200  0.351800  1.0  0.0787
  H  H43  1  0.270600  0.407700  0.008000  1.0  0.0643
  H  H44  1  0.171200  0.542100  0.951500  1.0  0.1164
  H  H45  1  0.987900  0.340200  0.922700  1.0  0.1068
  H  H46  1  0.094600  0.210200  0.977200  1.0  0.0618
  H  H47  1  0.014600  0.606400  0.898200  1.0  0.08
  H  H48  1  0.933500  0.528900  0.896400  1.0  0.0765
  H  H49  1  0.995800  0.766300  0.629600  1.0  0.0626
  H  H50  1  0.098000  0.666500  0.704600  1.0  0.1037
  H  H51  1  0.841500  0.560800  0.807300  1.0  0.0991
  H  H52  1  0.745500  0.664700  0.731100  1.0  0.0663
  H  H53  1  0.117300  0.549600  0.803200  1.0  0.0859
  H  H54  1  0.048500  0.460500  0.804100  1.0  0.1057
  H  H55  1  0.797300  0.645600  0.523300  1.0  0.0683
  H  H56  1  0.710800  0.522200  0.497700  1.0  0.1079
  H  H57  1  0.456600  0.639000  0.612600  1.0  0.0966
  H  H58  1  0.550600  0.756100  0.639200  1.0  0.0733
  H  H59  1  0.450900  0.481500  0.568200  1.0  0.0936
  H  H60  1  0.557100  0.417900  0.539900  1.0  0.095
  H  H61  1  0.212300  0.046400  0.670200  1.0  0.0637
  H  H62  1  0.345300  0.951200  0.608500  1.0  0.1152
  H  H63  1  0.475700  0.210700  0.546300  1.0  0.1105
  H  H64  1  0.340400  0.299000  0.610000  1.0  0.0652
  H  H65  1  0.531400  0.941200  0.559500  1.0  0.0831
  H  H66  1  0.575300  0.044800  0.524400  1.0  0.0779
  H  H67  1  0.231600  0.066000  0.794300  1.0  0.0709
  H  H68  1  0.169300  0.961700  0.889400  1.0  0.1222
  H  H69  1  0.905000  0.160100  0.900600  1.0  0.1176
  H  H70  1  0.972600  0.257700  0.805000  1.0  0.0735
  H  H71  1  0.911000  0.989300  0.969700  1.0  0.082
  H  H72  1  0.015700  0.910900  0.965400  1.0  0.0843
  H  H73  1  0.221300  0.474500  0.664200  1.0  0.0826
  H  H74  1  0.326000  0.578000  0.696200  1.0  0.0964
  H  H75  1  0.395600  0.354600  0.847300  1.0  0.1034
  H  H76  1  0.285500  0.259300  0.814500  1.0  0.0711
  H  H77  1  0.514100  0.505000  0.796000  1.0  0.0928
  H  H78  1  0.449200  0.605500  0.761400  1.0  0.0792
  H  H79  1  0.641400  0.801000  0.837500  1.0  0.0635
  H  H80  1  0.534500  0.711000  0.796400  1.0  0.1032
  H  H81  1  0.427000  0.607500  0.987200  1.0  0.1059
  H  H82  1  0.530500  0.705300  0.023500  1.0  0.0711
  H  H83  1  0.399900  0.515300  0.897300  1.0  0.0999
  H  H84  1  0.335100  0.615600  0.862800  1.0  0.112
  H  H85  1  0.687800  0.016800  0.871400  1.0  0.0651
  H  H86  1  0.776200  0.101700  0.778300  1.0  0.1154
  H  H87  1  0.002600  0.861800  0.781200  1.0  0.115
  H  H88  1  0.907100  0.780200  0.873300  1.0  0.069
  H  H89  1  0.943500  0.122300  0.711000  1.0  0.0828
  H  H90  1  0.035500  0.028900  0.714300  1.0  0.0837
  H  H91  1  0.043100  0.269800  0.484800  1.0  0.0724
  H  H92  1  0.934000  0.208100  0.577200  1.0  0.1183
  H  H93  1  0.109400  0.931500  0.576700  1.0  0.1027
  H  H94  1  0.212000  0.998800  0.483300  1.0  0.0744
  H  H95  1  0.864900  0.045300  0.639400  1.0  0.0883
  H  H96  1  0.945400  0.942800  0.648200  1.0  0.0773
  H  H97  1  0.729400  0.592300  0.992000  1.0  0.0646
  H  H98  1  0.828800  0.457900  0.048500  1.0  0.1167
  H  H99  1  0.012100  0.659800  0.077300  1.0  0.1063
  H  H100  1  0.905400  0.789800  0.022800  1.0  0.0621
  H  H101  1  0.985400  0.393600  0.101800  1.0  0.0804
  H  H102  1  0.066500  0.471100  0.103600  1.0  0.0734
  H  H103  1  0.004200  0.233700  0.370400  1.0  0.0631
  H  H104  1  0.902000  0.333500  0.295400  1.0  0.1035
  H  H105  1  0.158500  0.439200  0.192700  1.0  0.099
  H  H106  1  0.254500  0.335300  0.268900  1.0  0.0647
  H  H107  1  0.882700  0.450400  0.196800  1.0  0.0861
  H  H108  1  0.951500  0.539500  0.195900  1.0  0.1065
  H  H109  1  0.202700  0.354400  0.476700  1.0  0.0682
  H  H110  1  0.289200  0.477800  0.502300  1.0  0.1085
  H  H111  1  0.543400  0.361000  0.387400  1.0  0.0971
  H  H112  1  0.449400  0.243900  0.360800  1.0  0.0734
  H  H113  1  0.549100  0.518500  0.431800  1.0  0.0938
  H  H114  1  0.442900  0.582100  0.460100  1.0  0.0968
  C  C115  1  0.732900  0.920100  0.354840  1.0  0.1405
  C  C116  1  0.653800  0.977400  0.391700  1.0  -0.2185
  C  C117  1  0.574100  0.929400  0.428710  1.0  0.0986
  C  C118  1  0.577300  0.824900  0.428140  1.0  -0.2114
  C  C119  1  0.658300  0.772600  0.389990  1.0  0.1533
  C  C120  1  0.486300  0.991600  0.467500  1.0  -0.2346
  C  C121  1  0.835800  0.914900  0.183920  1.0  0.1415
  C  C122  1  0.872300  0.977600  0.126890  1.0  -0.2316
  C  C123  1  0.970100  0.950500  0.094110  1.0  0.1178
  C  C124  1  0.027700  0.861000  0.120570  1.0  -0.228
  C  C125  1  0.986800  0.802900  0.177590  1.0  0.1505
  C  C126  1  0.013100  0.016400  0.032110  1.0  -0.2501
  C  C127  1  0.743300  0.549600  0.297870  1.0  0.1412
  C  C128  1  0.680200  0.488000  0.279310  1.0  -0.2234
  C  C129  1  0.625900  0.521800  0.225090  1.0  0.1347
  C  C130  1  0.639900  0.618900  0.190160  1.0  -0.2309
  C  C131  1  0.705100  0.675500  0.210320  1.0  0.1518
  C  C132  1  0.555900  0.456100  0.204800  1.0  -0.2469
  C  C133  1  0.402700  0.239200  0.131730  1.0  0.1536
  C  C134  1  0.465200  0.293900  0.156610  1.0  -0.2512
  C  C135  1  0.528200  0.356600  0.112850  1.0  0.1271
  C  C136  1  0.528900  0.353800  0.044700  1.0  -0.2295
  C  C137  1  0.466700  0.295900  0.023350  1.0  0.136
  C  C138  1  0.594700  0.422600  0.136050  1.0  -0.3547
  C  C139  1  0.247400  0.015500  0.147290  1.0  0.1249
  C  C140  1  0.194600  0.963900  0.202400  1.0  -0.2513
  C  C141  1  0.099700  0.007400  0.229450  1.0  0.1275
  C  C142  1  0.062100  0.104900  0.200830  1.0  -0.2413
  C  C143  1  0.119600  0.153200  0.145920  1.0  0.151
  C  C144  1  0.039100  0.952800  0.289000  1.0  -0.2067
  C  C145  1  0.944000  0.800200  0.496630  1.0  0.1346
  C  C146  1  0.009500  0.836400  0.441510  1.0  -0.2416
  C  C147  1  0.991700  0.938700  0.413830  1.0  0.0825
  C  C148  1  0.906700  0.999000  0.442040  1.0  -0.2318
  C  C149  1  0.845100  0.958100  0.497410  1.0  0.1526
  C  C150  1  0.062600  0.981500  0.354380  1.0  -0.2379
  C  C151  1  0.213700  0.393600  0.989050  1.0  0.1541
  C  C152  1  0.154300  0.474300  0.955830  1.0  -0.2431
  C  C153  1  0.069600  0.455500  0.928730  1.0  0.0744
  C  C154  1  0.047000  0.355700  0.938540  1.0  -0.25
  C  C155  1  0.110800  0.278400  0.971530  1.0  0.1666
  C  C156  1  0.007400  0.538200  0.886970  1.0  -0.2142
  C  C157  1  0.964100  0.724200  0.666530  1.0  0.1406
  C  C158  1  0.025700  0.664500  0.710970  1.0  -0.2277
  C  C159  1  0.981300  0.601700  0.764900  1.0  0.1302
  C  C160  1  0.875100  0.602900  0.771290  1.0  -0.224
  C  C161  1  0.818100  0.664800  0.725520  1.0  0.1392
  C  C162  1  0.046000  0.532200  0.812740  1.0  -0.3147
  C  C163  1  0.727600  0.643100  0.542510  1.0  0.1385
  C  C164  1  0.676200  0.569700  0.526670  1.0  -0.2355
  C  C165  1  0.573200  0.564700  0.553050  1.0  0.1337
  C  C166  1  0.527200  0.637900  0.594650  1.0  -0.2236
  C  C167  1  0.583300  0.708300  0.609830  1.0  0.1448
  C  C168  1  0.514500  0.485900  0.535990  1.0  -0.2743
  C  C169  1  0.267100  0.079900  0.645160  1.0  0.1405
  C  C170  1  0.346200  0.022600  0.608300  1.0  -0.217
  C  C171  1  0.425900  0.070600  0.571290  1.0  0.1005
  C  C172  1  0.422700  0.175100  0.571860  1.0  -0.2095
  C  C173  1  0.341700  0.227400  0.610010  1.0  0.1529
  C  C174  1  0.513700  0.008400  0.532500  1.0  -0.2359
  C  C175  1  0.164200  0.085100  0.816080  1.0  0.1421
  C  C176  1  0.127700  0.022400  0.873110  1.0  -0.2332
  C  C177  1  0.029900  0.049500  0.905890  1.0  0.1175
  C  C178  1  0.972300  0.139000  0.879430  1.0  -0.2268
  C  C179  1  0.013200  0.197100  0.822410  1.0  0.1518
  C  C180  1  0.986900  0.983600  0.967890  1.0  -0.2517
  C  C181  1  0.256700  0.450400  0.702130  1.0  0.1418
  C  C182  1  0.319800  0.512000  0.720690  1.0  -0.2218
  C  C183  1  0.374100  0.478200  0.774910  1.0  0.1363
  C  C184  1  0.360100  0.381100  0.809840  1.0  -0.2315
  C  C185  1  0.294900  0.324500  0.789680  1.0  0.1523
  C  C186  1  0.444100  0.543900  0.795200  1.0  -0.2462
  C  C187  1  0.597300  0.760800  0.868270  1.0  0.1553
  C  C188  1  0.534800  0.706100  0.843390  1.0  -0.2508
  C  C189  1  0.471800  0.643400  0.887150  1.0  0.1264
  C  C190  1  0.471100  0.646200  0.955300  1.0  -0.2305
  C  C191  1  0.533300  0.704100  0.976650  1.0  0.1373
  C  C192  1  0.405300  0.577400  0.863950  1.0  -0.3583
  C  C193  1  0.752600  0.984500  0.852710  1.0  0.1276
  C  C194  1  0.805400  0.036100  0.797600  1.0  -0.2492
  C  C195  1  0.900300  0.992600  0.770550  1.0  0.1259
  C  C196  1  0.937900  0.895100  0.799170  1.0  -0.2394
  C  C197  1  0.880400  0.846800  0.854080  1.0  0.1503
  C  C198  1  0.960900  0.047200  0.711000  1.0  -0.2064
  C  C199  1  0.056000  0.199800  0.503370  1.0  0.1347
  C  C200  1  0.990500  0.163600  0.558490  1.0  -0.2415
  C  C201  1  0.008300  0.061300  0.586170  1.0  0.0826
  C  C202  1  0.093300  0.001000  0.557960  1.0  -0.2317
  C  C203  1  0.154900  0.041900  0.502590  1.0  0.1515
  C  C204  1  0.937400  0.018500  0.645620  1.0  -0.2387
  C  C205  1  0.786300  0.606400  0.010950  1.0  0.1544
  C  C206  1  0.845700  0.525700  0.044170  1.0  -0.2435
  C  C207  1  0.930400  0.544500  0.071270  1.0  0.0745
  C  C208  1  0.953000  0.644300  0.061460  1.0  -0.2527
  C  C209  1  0.889200  0.721600  0.028470  1.0  0.1671
  C  C210  1  0.992600  0.461800  0.113030  1.0  -0.2151
  C  C211  1  0.035900  0.275800  0.333470  1.0  0.1417
  C  C212  1  0.974300  0.335500  0.289030  1.0  -0.227
  C  C213  1  0.018700  0.398300  0.235100  1.0  0.1293
  C  C214  1  0.124900  0.397100  0.228710  1.0  -0.2247
  C  C215  1  0.181900  0.335200  0.274480  1.0  0.1371
  C  C216  1  0.954000  0.467800  0.187260  1.0  -0.3153
  C  C217  1  0.272400  0.356900  0.457490  1.0  0.1395
  C  C218  1  0.323800  0.430300  0.473330  1.0  -0.2359
  C  C219  1  0.426800  0.435300  0.446950  1.0  0.1335
  C  C220  1  0.472800  0.362100  0.405350  1.0  -0.2244
  C  C221  1  0.416700  0.291700  0.390170  1.0  0.1441
  C  C222  1  0.485500  0.514100  0.464010  1.0  -0.2722
  N  N223  1  0.734730  0.819380  0.353140  1.0  -0.3529
  N  N224  1  0.891410  0.828710  0.209650  1.0  -0.3517
  N  N225  1  0.756400  0.643100  0.263690  1.0  -0.3485
  N  N226  1  0.401120  0.240100  0.065890  1.0  -0.3536
  N  N227  1  0.211700  0.109500  0.118760  1.0  -0.338
  N  N228  1  0.862800  0.859520  0.525160  1.0  -0.3613
  N  N229  1  0.194490  0.295690  0.995810  1.0  -0.3696
  N  N230  1  0.861300  0.725160  0.673450  1.0  -0.3646
  N  N231  1  0.683450  0.712000  0.584380  1.0  -0.3562
  N  N232  1  0.265270  0.180620  0.646860  1.0  -0.3532
  N  N233  1  0.108590  0.171290  0.790350  1.0  -0.3521
  N  N234  1  0.243600  0.356900  0.736310  1.0  -0.3487
  N  N235  1  0.598880  0.759900  0.934110  1.0  -0.3548
  N  N236  1  0.788300  0.890500  0.881240  1.0  -0.3388
  N  N237  1  0.137200  0.140480  0.474840  1.0  -0.3611
  N  N238  1  0.805510  0.704310  0.004190  1.0  -0.3719
  N  N239  1  0.138700  0.274840  0.326550  1.0  -0.3623
  N  N240  1  0.316550  0.288000  0.415620  1.0  -0.3595
