# generated using pymatgen
data_Al3Si2PO12
_symmetry_space_group_name_H-M   'P 1'
_cell_length_a   18.71190000
_cell_length_b   18.71190000
_cell_length_c   9.39910000
_cell_angle_alpha   90.00000000
_cell_angle_beta   90.00000000
_cell_angle_gamma   90.00000000
_symmetry_Int_Tables_number   1
_chemical_formula_structural   Al3Si2PO12
_chemical_formula_sum   'Al24 Si16 P8 O96'
_cell_volume   3290.95577345
_cell_formula_units_Z   8
loop_
 _symmetry_equiv_pos_site_id
 _symmetry_equiv_pos_as_xyz
  1  'x, y, z'
loop_
 _atom_site_type_symbol
 _atom_site_label
 _atom_site_symmetry_multiplicity
 _atom_site_fract_x
 _atom_site_fract_y
 _atom_site_fract_z
 _atom_site_occupancy
 _atom_site_charge
  Al  Al1  1  0.664600  0.544880  0.338580  1.0  1.9658
  Al  Al2  1  0.834490  0.433750  0.591700  1.0  1.8994
  Al  Al3  1  0.930160  0.441860  0.159340  1.0  1.7744
  Al  Al4  1  0.835400  0.955120  0.338580  1.0  1.967
  Al  Al5  1  0.665510  0.066250  0.591700  1.0  1.8985
  Al  Al6  1  0.569840  0.058140  0.159340  1.0  1.7748
  Al  Al7  1  0.955120  0.664600  0.338580  1.0  1.9708
  Al  Al8  1  0.066250  0.834490  0.591700  1.0  1.9007
  Al  Al9  1  0.058140  0.930160  0.159340  1.0  1.773
  Al  Al10  1  0.544880  0.835400  0.338580  1.0  1.9711
  Al  Al11  1  0.433750  0.665510  0.591700  1.0  1.9019
  Al  Al12  1  0.441860  0.569840  0.159340  1.0  1.7716
  Al  Al13  1  0.335400  0.455120  0.661420  1.0  1.9671
  Al  Al14  1  0.165510  0.566250  0.408300  1.0  1.8972
  Al  Al15  1  0.069840  0.558140  0.840660  1.0  1.7751
  Al  Al16  1  0.164600  0.044880  0.661420  1.0  1.9655
  Al  Al17  1  0.334490  0.933750  0.408300  1.0  1.898
  Al  Al18  1  0.430160  0.941860  0.840660  1.0  1.7741
  Al  Al19  1  0.044880  0.335400  0.661420  1.0  1.9711
  Al  Al20  1  0.933750  0.165510  0.408300  1.0  1.9006
  Al  Al21  1  0.941860  0.069840  0.840660  1.0  1.7726
  Al  Al22  1  0.455120  0.164600  0.661420  1.0  1.9707
  Al  Al23  1  0.566250  0.334490  0.408300  1.0  1.8993
  Al  Al24  1  0.558140  0.430160  0.840660  1.0  1.7737
  Si  Si25  1  0.667330  0.434930  0.592630  1.0  1.9491
  Si  Si26  1  0.832410  0.550720  0.340420  1.0  1.8896
  Si  Si27  1  0.832670  0.065070  0.592630  1.0  1.9483
  Si  Si28  1  0.667590  0.949280  0.340420  1.0  1.8891
  Si  Si29  1  0.065070  0.667330  0.592630  1.0  1.9491
  Si  Si30  1  0.949280  0.832410  0.340420  1.0  1.8861
  Si  Si31  1  0.434930  0.832670  0.592630  1.0  1.9493
  Si  Si32  1  0.550720  0.667590  0.340420  1.0  1.8884
  Si  Si33  1  0.332670  0.565070  0.407370  1.0  1.9475
  Si  Si34  1  0.167590  0.449280  0.659580  1.0  1.8877
  Si  Si35  1  0.167330  0.934930  0.407370  1.0  1.9481
  Si  Si36  1  0.332410  0.050720  0.659580  1.0  1.8883
  Si  Si37  1  0.934930  0.332670  0.407370  1.0  1.9484
  Si  Si38  1  0.050720  0.167590  0.659580  1.0  1.8872
  Si  Si39  1  0.565070  0.167330  0.407370  1.0  1.9483
  Si  Si40  1  0.449280  0.332410  0.659580  1.0  1.8851
  P  P41  1  0.052590  0.561700  0.165850  1.0  1.8244
  P  P42  1  0.447410  0.938300  0.165850  1.0  1.825
  P  P43  1  0.938300  0.052590  0.165850  1.0  1.8264
  P  P44  1  0.561700  0.447410  0.165850  1.0  1.8257
  P  P45  1  0.947410  0.438300  0.834150  1.0  1.8249
  P  P46  1  0.552590  0.061700  0.834150  1.0  1.8245
  P  P47  1  0.061700  0.947410  0.834150  1.0  1.8273
  P  P48  1  0.438300  0.552590  0.834150  1.0  1.828
  O  O49  1  0.658680  0.500710  0.507390  1.0  -0.9748
  O  O50  1  0.748020  0.420370  0.620860  1.0  -0.9846
  O  O51  1  0.635610  0.369510  0.521280  1.0  -1.0173
  O  O52  1  0.634620  0.442210  0.742750  1.0  -0.9985
  O  O53  1  0.752420  0.562040  0.306350  1.0  -1.0282
  O  O54  1  0.006510  0.626450  0.206400  1.0  -1.0442
  O  O55  1  0.870030  0.618370  0.345920  1.0  -0.7702
  O  O56  1  0.840680  0.519820  0.488820  1.0  -0.8832
  O  O57  1  0.859180  0.498240  0.221320  1.0  -0.9986
  O  O58  1  0.117970  0.568030  0.252170  1.0  -0.8851
  O  O59  1  0.078640  0.579800  0.007460  1.0  -0.963
  O  O60  1  0.014870  0.495390  0.174450  1.0  -0.7629
  O  O61  1  0.841320  0.999290  0.507390  1.0  -0.973
  O  O62  1  0.751980  0.079630  0.620860  1.0  -0.9847
  O  O63  1  0.864390  0.130490  0.521280  1.0  -1.0193
  O  O64  1  0.865380  0.057790  0.742750  1.0  -0.9987
  O  O65  1  0.747580  0.937960  0.306350  1.0  -1.0281
  O  O66  1  0.493490  0.873550  0.206400  1.0  -1.044
  O  O67  1  0.629970  0.881630  0.345920  1.0  -0.7677
  O  O68  1  0.659320  0.980180  0.488820  1.0  -0.8827
  O  O69  1  0.640820  0.001760  0.221320  1.0  -0.9987
  O  O70  1  0.382030  0.931970  0.252170  1.0  -0.8855
  O  O71  1  0.421360  0.920200  0.007460  1.0  -0.9622
  O  O72  1  0.485130  0.004610  0.174450  1.0  -0.7667
  O  O73  1  0.999290  0.658680  0.507390  1.0  -0.9713
  O  O74  1  0.079630  0.748020  0.620860  1.0  -0.9828
  O  O75  1  0.130490  0.635610  0.521280  1.0  -1.0161
  O  O76  1  0.057790  0.634620  0.742750  1.0  -0.9995
  O  O77  1  0.937960  0.752420  0.306350  1.0  -1.0271
  O  O78  1  0.873550  0.006510  0.206400  1.0  -1.0412
  O  O79  1  0.881630  0.870030  0.345920  1.0  -0.7668
  O  O80  1  0.980180  0.840680  0.488820  1.0  -0.8825
  O  O81  1  0.001760  0.859180  0.221320  1.0  -0.9981
  O  O82  1  0.931970  0.117970  0.252170  1.0  -0.8888
  O  O83  1  0.920200  0.078640  0.007460  1.0  -0.9613
  O  O84  1  0.004610  0.014870  0.174450  1.0  -0.7628
  O  O85  1  0.500710  0.841320  0.507390  1.0  -0.9715
  O  O86  1  0.420370  0.751980  0.620860  1.0  -0.9834
  O  O87  1  0.369510  0.864390  0.521280  1.0  -1.0167
  O  O88  1  0.442210  0.865380  0.742750  1.0  -1.0001
  O  O89  1  0.562040  0.747580  0.306350  1.0  -1.0261
  O  O90  1  0.626450  0.493490  0.206400  1.0  -1.0406
  O  O91  1  0.618370  0.629970  0.345920  1.0  -0.7668
  O  O92  1  0.519820  0.659320  0.488820  1.0  -0.8817
  O  O93  1  0.498240  0.640820  0.221320  1.0  -0.9984
  O  O94  1  0.568030  0.382030  0.252170  1.0  -0.8858
  O  O95  1  0.579800  0.421360  0.007460  1.0  -0.9617
  O  O96  1  0.495390  0.485130  0.174450  1.0  -0.7624
  O  O97  1  0.341320  0.499290  0.492610  1.0  -0.9745
  O  O98  1  0.251980  0.579630  0.379140  1.0  -0.9841
  O  O99  1  0.364390  0.630490  0.478720  1.0  -1.0194
  O  O100  1  0.365380  0.557790  0.257250  1.0  -0.9977
  O  O101  1  0.247580  0.437960  0.693650  1.0  -1.0279
  O  O102  1  0.993490  0.373550  0.793600  1.0  -1.0444
  O  O103  1  0.129970  0.381630  0.654080  1.0  -0.7677
  O  O104  1  0.159320  0.480180  0.511180  1.0  -0.8819
  O  O105  1  0.140820  0.501760  0.778680  1.0  -0.9986
  O  O106  1  0.882030  0.431970  0.747830  1.0  -0.8848
  O  O107  1  0.921360  0.420200  0.992540  1.0  -0.9623
  O  O108  1  0.985130  0.504610  0.825550  1.0  -0.767
  O  O109  1  0.158680  0.000710  0.492610  1.0  -0.9763
  O  O110  1  0.248020  0.920370  0.379140  1.0  -0.9837
  O  O111  1  0.135610  0.869510  0.478720  1.0  -1.0172
  O  O112  1  0.134620  0.942210  0.257250  1.0  -0.9978
  O  O113  1  0.252420  0.062040  0.693650  1.0  -1.0282
  O  O114  1  0.506510  0.126450  0.793600  1.0  -1.0444
  O  O115  1  0.370030  0.118370  0.654080  1.0  -0.7704
  O  O116  1  0.340680  0.019820  0.511180  1.0  -0.8825
  O  O117  1  0.359180  0.998240  0.778680  1.0  -0.9982
  O  O118  1  0.617970  0.068030  0.747830  1.0  -0.8848
  O  O119  1  0.578640  0.079800  0.992540  1.0  -0.9631
  O  O120  1  0.514870  0.995390  0.825550  1.0  -0.7631
  O  O121  1  0.000710  0.341320  0.492610  1.0  -0.9726
  O  O122  1  0.920370  0.251980  0.379140  1.0  -0.9826
  O  O123  1  0.869510  0.364390  0.478720  1.0  -1.0173
  O  O124  1  0.942210  0.365380  0.257250  1.0  -0.9985
  O  O125  1  0.062040  0.247580  0.693650  1.0  -1.0264
  O  O126  1  0.126450  0.993490  0.793600  1.0  -1.0412
  O  O127  1  0.118370  0.129970  0.654080  1.0  -0.767
  O  O128  1  0.019820  0.159320  0.511180  1.0  -0.8812
  O  O129  1  0.998240  0.140820  0.778680  1.0  -0.9992
  O  O130  1  0.068030  0.882030  0.747830  1.0  -0.8857
  O  O131  1  0.079800  0.921360  0.992540  1.0  -0.9632
  O  O132  1  0.995390  0.985130  0.825550  1.0  -0.7624
  O  O133  1  0.499290  0.158680  0.492610  1.0  -0.9728
  O  O134  1  0.579630  0.248020  0.379140  1.0  -0.9816
  O  O135  1  0.630490  0.135610  0.478720  1.0  -1.0164
  O  O136  1  0.557790  0.134620  0.257250  1.0  -0.9984
  O  O137  1  0.437960  0.252420  0.693650  1.0  -1.0269
  O  O138  1  0.373550  0.506510  0.793600  1.0  -1.0408
  O  O139  1  0.381630  0.370030  0.654080  1.0  -0.7667
  O  O140  1  0.480180  0.340680  0.511180  1.0  -0.8816
  O  O141  1  0.501760  0.359180  0.778680  1.0  -0.9987
  O  O142  1  0.431970  0.617970  0.747830  1.0  -0.8875
  O  O143  1  0.420200  0.578640  0.992540  1.0  -0.9625
  O  O144  1  0.504610  0.514870  0.825550  1.0  -0.763
