# generated using pymatgen
data_AlPO4
_symmetry_space_group_name_H-M   'P 1'
_cell_length_a   18.74100000
_cell_length_b   18.74100000
_cell_length_c   9.41400000
_cell_angle_alpha   90.00000000
_cell_angle_beta   90.00000000
_cell_angle_gamma   90.00000000
_symmetry_Int_Tables_number   1
_chemical_formula_structural   AlPO4
_chemical_formula_sum   'Al24 P24 O96'
_cell_volume   3306.43291253
_cell_formula_units_Z   24
loop_
 _symmetry_equiv_pos_site_id
 _symmetry_equiv_pos_as_xyz
  1  'x, y, z'
loop_
 _atom_site_type_symbol
 _atom_site_label
 _atom_site_symmetry_multiplicity
 _atom_site_fract_x
 _atom_site_fract_y
 _atom_site_fract_z
 _atom_site_occupancy
 _atom_site_charge
  Al  Al1  1  0.565900  0.166050  0.092500  1.0  1.9712
  Al  Al2  1  0.666530  0.950500  0.159800  1.0  1.9866
  Al  Al3  1  0.443920  0.934800  0.336300  1.0  1.9841
  Al  Al4  1  0.934100  0.333950  0.092500  1.0  1.9706
  Al  Al5  1  0.833470  0.549500  0.159800  1.0  1.9857
  Al  Al6  1  0.056080  0.565200  0.336300  1.0  1.9836
  Al  Al7  1  0.333950  0.565900  0.092500  1.0  1.9684
  Al  Al8  1  0.549500  0.666530  0.159800  1.0  1.9856
  Al  Al9  1  0.565200  0.443920  0.336300  1.0  1.9839
  Al  Al10  1  0.166050  0.934100  0.092500  1.0  1.9712
  Al  Al11  1  0.950500  0.833470  0.159800  1.0  1.9862
  Al  Al12  1  0.934800  0.056080  0.336300  1.0  1.9831
  Al  Al13  1  0.434100  0.833950  0.907500  1.0  1.9701
  Al  Al14  1  0.333470  0.049500  0.840200  1.0  1.9863
  Al  Al15  1  0.556080  0.065200  0.663700  1.0  1.9836
  Al  Al16  1  0.065900  0.666050  0.907500  1.0  1.971
  Al  Al17  1  0.166530  0.450500  0.840200  1.0  1.9871
  Al  Al18  1  0.943920  0.434800  0.663700  1.0  1.984
  Al  Al19  1  0.666050  0.434100  0.907500  1.0  1.9708
  Al  Al20  1  0.450500  0.333470  0.840200  1.0  1.9863
  Al  Al21  1  0.434800  0.556080  0.663700  1.0  1.9832
  Al  Al22  1  0.833950  0.065900  0.907500  1.0  1.9678
  Al  Al23  1  0.049500  0.166530  0.840200  1.0  1.9863
  Al  Al24  1  0.065200  0.943920  0.663700  1.0  1.984
  P  P25  1  0.565000  0.052400  0.334100  1.0  1.6983
  P  P26  1  0.665900  0.064100  0.916000  1.0  1.6937
  P  P27  1  0.454500  0.165300  0.842800  1.0  1.6699
  P  P28  1  0.935000  0.447600  0.334100  1.0  1.6994
  P  P29  1  0.834100  0.435900  0.916000  1.0  1.6921
  P  P30  1  0.045500  0.334700  0.842800  1.0  1.6705
  P  P31  1  0.447600  0.565000  0.334100  1.0  1.698
  P  P32  1  0.435900  0.665900  0.916000  1.0  1.6938
  P  P33  1  0.334700  0.454500  0.842800  1.0  1.6702
  P  P34  1  0.052400  0.935000  0.334100  1.0  1.6988
  P  P35  1  0.064100  0.834100  0.916000  1.0  1.6944
  P  P36  1  0.165300  0.045500  0.842800  1.0  1.671
  P  P37  1  0.435000  0.947600  0.665900  1.0  1.6991
  P  P38  1  0.334100  0.935900  0.084000  1.0  1.6927
  P  P39  1  0.545500  0.834700  0.157200  1.0  1.6708
  P  P40  1  0.065000  0.552400  0.665900  1.0  1.698
  P  P41  1  0.165900  0.564100  0.084000  1.0  1.694
  P  P42  1  0.954500  0.665300  0.157200  1.0  1.6704
  P  P43  1  0.552400  0.435000  0.665900  1.0  1.6986
  P  P44  1  0.564100  0.334100  0.084000  1.0  1.6945
  P  P45  1  0.665300  0.545500  0.157200  1.0  1.6711
  P  P46  1  0.947600  0.065000  0.665900  1.0  1.6976
  P  P47  1  0.935900  0.165900  0.084000  1.0  1.6941
  P  P48  1  0.834700  0.954500  0.157200  1.0  1.6706
  O  O49  1  0.658800  0.987300  0.010700  1.0  -0.9418
  O  O50  1  0.495800  0.157200  0.007000  1.0  -0.9609
  O  O51  1  0.624800  0.058100  0.751300  1.0  -0.8989
  O  O52  1  0.372500  0.122300  0.841300  1.0  -0.9027
  O  O53  1  0.438100  0.253900  0.805100  1.0  -0.9002
  O  O54  1  0.754100  0.081200  0.879600  1.0  -0.8692
  O  O55  1  0.510000  0.129100  0.713000  1.0  -0.9563
  O  O56  1  0.630500  0.134400  0.011700  1.0  -0.9358
  O  O57  1  0.484900  0.005700  0.325500  1.0  -0.9428
  O  O58  1  0.579200  0.077600  0.510600  1.0  -0.862
  O  O59  1  0.557700  0.128200  0.237200  1.0  -0.9113
  O  O60  1  0.635000  0.000200  0.278100  1.0  -0.9257
  O  O61  1  0.841200  0.512700  0.010700  1.0  -0.9425
  O  O62  1  0.004200  0.342800  0.007000  1.0  -0.9612
  O  O63  1  0.875200  0.441900  0.751300  1.0  -0.8986
  O  O64  1  0.127500  0.377700  0.841300  1.0  -0.9015
  O  O65  1  0.061900  0.246100  0.805100  1.0  -0.8996
  O  O66  1  0.745900  0.418800  0.879600  1.0  -0.8682
  O  O67  1  0.990000  0.370900  0.713000  1.0  -0.9536
  O  O68  1  0.869500  0.365600  0.011700  1.0  -0.9359
  O  O69  1  0.015100  0.494300  0.325500  1.0  -0.9398
  O  O70  1  0.920800  0.422400  0.510600  1.0  -0.8617
  O  O71  1  0.942300  0.371800  0.237200  1.0  -0.9112
  O  O72  1  0.865000  0.499800  0.278100  1.0  -0.9256
  O  O73  1  0.512700  0.658800  0.010700  1.0  -0.9396
  O  O74  1  0.342800  0.495800  0.007000  1.0  -0.9631
  O  O75  1  0.441900  0.624800  0.751300  1.0  -0.9001
  O  O76  1  0.377700  0.372500  0.841300  1.0  -0.9009
  O  O77  1  0.246100  0.438100  0.805100  1.0  -0.9011
  O  O78  1  0.418800  0.754100  0.879600  1.0  -0.8673
  O  O79  1  0.370900  0.510000  0.713000  1.0  -0.9536
  O  O80  1  0.365600  0.630500  0.011700  1.0  -0.9378
  O  O81  1  0.494300  0.484900  0.325500  1.0  -0.9392
  O  O82  1  0.422400  0.579200  0.510600  1.0  -0.8629
  O  O83  1  0.371800  0.557700  0.237200  1.0  -0.9117
  O  O84  1  0.499800  0.635000  0.278100  1.0  -0.9272
  O  O85  1  0.987300  0.841200  0.010700  1.0  -0.9403
  O  O86  1  0.157200  0.004200  0.007000  1.0  -0.9648
  O  O87  1  0.058100  0.875200  0.751300  1.0  -0.9007
  O  O88  1  0.122300  0.127500  0.841300  1.0  -0.9008
  O  O89  1  0.253900  0.061900  0.805100  1.0  -0.9007
  O  O90  1  0.081200  0.745900  0.879600  1.0  -0.8659
  O  O91  1  0.129100  0.990000  0.713000  1.0  -0.954
  O  O92  1  0.134400  0.869500  0.011700  1.0  -0.9363
  O  O93  1  0.005700  0.015100  0.325500  1.0  -0.9391
  O  O94  1  0.077600  0.920800  0.510600  1.0  -0.8617
  O  O95  1  0.128200  0.942300  0.237200  1.0  -0.9103
  O  O96  1  0.000200  0.865000  0.278100  1.0  -0.9269
  O  O97  1  0.341200  0.012700  0.989300  1.0  -0.9425
  O  O98  1  0.504200  0.842800  0.993000  1.0  -0.9602
  O  O99  1  0.375200  0.941900  0.248700  1.0  -0.8974
  O  O100  1  0.627500  0.877700  0.158700  1.0  -0.9001
  O  O101  1  0.561900  0.746100  0.194900  1.0  -0.8999
  O  O102  1  0.245900  0.918800  0.120400  1.0  -0.8678
  O  O103  1  0.490000  0.870900  0.287000  1.0  -0.9531
  O  O104  1  0.369500  0.865600  0.988300  1.0  -0.9362
  O  O105  1  0.515100  0.994300  0.674500  1.0  -0.9396
  O  O106  1  0.420800  0.922400  0.489400  1.0  -0.8636
  O  O107  1  0.442300  0.871800  0.762800  1.0  -0.9107
  O  O108  1  0.365000  0.999800  0.721900  1.0  -0.9267
  O  O109  1  0.158800  0.487300  0.989300  1.0  -0.9415
  O  O110  1  0.995800  0.657200  0.993000  1.0  -0.9604
  O  O111  1  0.124800  0.558100  0.248700  1.0  -0.8978
  O  O112  1  0.872500  0.622300  0.158700  1.0  -0.9013
  O  O113  1  0.938100  0.753900  0.194900  1.0  -0.9
  O  O114  1  0.254100  0.581200  0.120400  1.0  -0.8691
  O  O115  1  0.010000  0.629100  0.287000  1.0  -0.9558
  O  O116  1  0.130500  0.634400  0.988300  1.0  -0.9359
  O  O117  1  0.984900  0.505700  0.674500  1.0  -0.9428
  O  O118  1  0.079200  0.577600  0.489400  1.0  -0.8637
  O  O119  1  0.057700  0.628200  0.762800  1.0  -0.9109
  O  O120  1  0.135000  0.500200  0.721900  1.0  -0.9266
  O  O121  1  0.487300  0.341200  0.989300  1.0  -0.9406
  O  O122  1  0.657200  0.504200  0.993000  1.0  -0.964
  O  O123  1  0.558100  0.375200  0.248700  1.0  -0.8995
  O  O124  1  0.622300  0.627500  0.158700  1.0  -0.9008
  O  O125  1  0.753900  0.561900  0.194900  1.0  -0.9012
  O  O126  1  0.581200  0.245900  0.120400  1.0  -0.866
  O  O127  1  0.629100  0.490000  0.287000  1.0  -0.9536
  O  O128  1  0.634400  0.369500  0.988300  1.0  -0.9366
  O  O129  1  0.505700  0.515100  0.674500  1.0  -0.939
  O  O130  1  0.577600  0.420800  0.489400  1.0  -0.8633
  O  O131  1  0.628200  0.442300  0.762800  1.0  -0.9101
  O  O132  1  0.500200  0.365000  0.721900  1.0  -0.9273
  O  O133  1  0.012700  0.158800  0.989300  1.0  -0.94
  O  O134  1  0.842800  0.995800  0.993000  1.0  -0.9627
  O  O135  1  0.941900  0.124800  0.248700  1.0  -0.8985
  O  O136  1  0.877700  0.872500  0.158700  1.0  -0.9006
  O  O137  1  0.746100  0.938100  0.194900  1.0  -0.901
  O  O138  1  0.918800  0.254100  0.120400  1.0  -0.8668
  O  O139  1  0.870900  0.010000  0.287000  1.0  -0.9524
  O  O140  1  0.865600  0.130500  0.988300  1.0  -0.9385
  O  O141  1  0.994300  0.984900  0.674500  1.0  -0.939
  O  O142  1  0.922400  0.079200  0.489400  1.0  -0.8644
  O  O143  1  0.871800  0.057700  0.762800  1.0  -0.9116
  O  O144  1  0.999800  0.135000  0.721900  1.0  -0.9282
