# generated using pymatgen
data_AlPO4
_symmetry_space_group_name_H-M   'P 1'
_cell_length_a   18.69800000
_cell_length_b   18.69800000
_cell_length_c   9.39500000
_cell_angle_alpha   90.00000000
_cell_angle_beta   90.00000000
_cell_angle_gamma   90.00000000
_symmetry_Int_Tables_number   1
_chemical_formula_structural   AlPO4
_chemical_formula_sum   'Al24 P24 O96'
_cell_volume   3284.63484158
_cell_formula_units_Z   24
loop_
 _symmetry_equiv_pos_site_id
 _symmetry_equiv_pos_as_xyz
  1  'x, y, z'
loop_
 _atom_site_type_symbol
 _atom_site_label
 _atom_site_symmetry_multiplicity
 _atom_site_fract_x
 _atom_site_fract_y
 _atom_site_fract_z
 _atom_site_occupancy
 _atom_site_charge
  Al  Al1  1  0.454540  0.334540  0.841200  1.0  2.037
  Al  Al2  1  0.564290  0.447710  0.334300  1.0  2.0324
  Al  Al3  1  0.563810  0.166290  0.084400  1.0  2.0415
  Al  Al4  1  0.045460  0.165460  0.841200  1.0  2.037
  Al  Al5  1  0.935710  0.052290  0.334300  1.0  2.0314
  Al  Al6  1  0.936190  0.333710  0.084400  1.0  2.0416
  Al  Al7  1  0.165460  0.454540  0.841200  1.0  2.0372
  Al  Al8  1  0.052290  0.564290  0.334300  1.0  2.0323
  Al  Al9  1  0.333710  0.563810  0.084400  1.0  2.0397
  Al  Al10  1  0.334540  0.045460  0.841200  1.0  2.0368
  Al  Al11  1  0.447710  0.935710  0.334300  1.0  2.0312
  Al  Al12  1  0.166290  0.936190  0.084400  1.0  2.0404
  Al  Al13  1  0.545460  0.665460  0.158800  1.0  2.0367
  Al  Al14  1  0.435710  0.552290  0.665700  1.0  2.0315
  Al  Al15  1  0.436190  0.833710  0.915600  1.0  2.0408
  Al  Al16  1  0.954540  0.834540  0.158800  1.0  2.0369
  Al  Al17  1  0.064290  0.947710  0.665700  1.0  2.0328
  Al  Al18  1  0.063810  0.666290  0.915600  1.0  2.0406
  Al  Al19  1  0.834540  0.545460  0.158800  1.0  2.0366
  Al  Al20  1  0.947710  0.435710  0.665700  1.0  2.0314
  Al  Al21  1  0.666290  0.436190  0.915600  1.0  2.0395
  Al  Al22  1  0.665460  0.954540  0.158800  1.0  2.0369
  Al  Al23  1  0.552290  0.064290  0.665700  1.0  2.0326
  Al  Al24  1  0.833710  0.063810  0.915600  1.0  2.0388
  P  P25  1  0.566080  0.333970  0.091100  1.0  1.903
  P  P26  1  0.450840  0.165910  0.839300  1.0  1.8914
  P  P27  1  0.565610  0.056260  0.336500  1.0  1.8821
  P  P28  1  0.933920  0.166030  0.091100  1.0  1.9021
  P  P29  1  0.049160  0.334090  0.839300  1.0  1.8943
  P  P30  1  0.934390  0.443740  0.336500  1.0  1.8823
  P  P31  1  0.166030  0.566080  0.091100  1.0  1.9024
  P  P32  1  0.334090  0.450840  0.839300  1.0  1.8937
  P  P33  1  0.443740  0.565610  0.336500  1.0  1.8808
  P  P34  1  0.333970  0.933920  0.091100  1.0  1.8998
  P  P35  1  0.165910  0.049160  0.839300  1.0  1.8946
  P  P36  1  0.056260  0.934390  0.336500  1.0  1.8822
  P  P37  1  0.433920  0.666030  0.908900  1.0  1.9017
  P  P38  1  0.549160  0.834090  0.160700  1.0  1.8943
  P  P39  1  0.434390  0.943740  0.663500  1.0  1.8818
  P  P40  1  0.066080  0.833970  0.908900  1.0  1.9028
  P  P41  1  0.950840  0.665910  0.160700  1.0  1.8916
  P  P42  1  0.065610  0.556260  0.663500  1.0  1.8815
  P  P43  1  0.833970  0.433920  0.908900  1.0  1.8994
  P  P44  1  0.665910  0.549160  0.160700  1.0  1.8945
  P  P45  1  0.556260  0.434390  0.663500  1.0  1.882
  P  P46  1  0.666030  0.066080  0.908900  1.0  1.9022
  P  P47  1  0.834090  0.950840  0.160700  1.0  1.8936
  P  P48  1  0.943740  0.065610  0.663500  1.0  1.8806
  O  O49  1  0.485800  0.158200  0.987800  1.0  -1.0211
  O  O50  1  0.377600  0.127300  0.841100  1.0  -0.9623
  O  O51  1  0.438100  0.245700  0.805000  1.0  -0.9469
  O  O52  1  0.496700  0.342700  0.003900  1.0  -1.0302
  O  O53  1  0.556900  0.371000  0.235700  1.0  -0.9609
  O  O54  1  0.630600  0.366100  0.010600  1.0  -1.0014
  O  O55  1  0.582900  0.254500  0.119800  1.0  -0.9493
  O  O56  1  0.500000  0.134600  0.723200  1.0  -0.9974
  O  O57  1  0.494800  0.015100  0.323200  1.0  -1.0294
  O  O58  1  0.578300  0.079300  0.491600  1.0  -0.9341
  O  O59  1  0.629100  0.010500  0.287300  1.0  -0.9843
  O  O60  1  0.559400  0.124900  0.246600  1.0  -0.9646
  O  O61  1  0.014200  0.341800  0.987800  1.0  -1.0207
  O  O62  1  0.122400  0.372700  0.841100  1.0  -0.9622
  O  O63  1  0.061900  0.254300  0.805000  1.0  -0.9464
  O  O64  1  0.003300  0.157300  0.003900  1.0  -1.0303
  O  O65  1  0.943100  0.129000  0.235700  1.0  -0.9608
  O  O66  1  0.869400  0.133900  0.010600  1.0  -1.0018
  O  O67  1  0.917100  0.245500  0.119800  1.0  -0.9497
  O  O68  1  0.000000  0.365400  0.723200  1.0  -0.9966
  O  O69  1  0.005200  0.484900  0.323200  1.0  -1.0293
  O  O70  1  0.921700  0.420700  0.491600  1.0  -0.9358
  O  O71  1  0.870900  0.489500  0.287300  1.0  -0.9836
  O  O72  1  0.940600  0.375100  0.246600  1.0  -0.9627
  O  O73  1  0.341800  0.485800  0.987800  1.0  -1.0228
  O  O74  1  0.372700  0.377600  0.841100  1.0  -0.9633
  O  O75  1  0.254300  0.438100  0.805000  1.0  -0.9489
  O  O76  1  0.157300  0.496700  0.003900  1.0  -1.0326
  O  O77  1  0.129000  0.556900  0.235700  1.0  -0.9608
  O  O78  1  0.133900  0.630600  0.010600  1.0  -1.0033
  O  O79  1  0.245500  0.582900  0.119800  1.0  -0.9519
  O  O80  1  0.365400  0.500000  0.723200  1.0  -0.9957
  O  O81  1  0.484900  0.494800  0.323200  1.0  -1.0295
  O  O82  1  0.420700  0.578300  0.491600  1.0  -0.9354
  O  O83  1  0.489500  0.629100  0.287300  1.0  -0.9846
  O  O84  1  0.375100  0.559400  0.246600  1.0  -0.962
  O  O85  1  0.158200  0.014200  0.987800  1.0  -1.0227
  O  O86  1  0.127300  0.122400  0.841100  1.0  -0.9642
  O  O87  1  0.245700  0.061900  0.805000  1.0  -0.9492
  O  O88  1  0.342700  0.003300  0.003900  1.0  -1.0352
  O  O89  1  0.371000  0.943100  0.235700  1.0  -0.9617
  O  O90  1  0.366100  0.869400  0.010600  1.0  -1.0021
  O  O91  1  0.254500  0.917100  0.119800  1.0  -0.9519
  O  O92  1  0.134600  0.000000  0.723200  1.0  -0.9964
  O  O93  1  0.015100  0.005200  0.323200  1.0  -1.0306
  O  O94  1  0.079300  0.921700  0.491600  1.0  -0.9352
  O  O95  1  0.010500  0.870900  0.287300  1.0  -0.9846
  O  O96  1  0.124900  0.940600  0.246600  1.0  -0.9622
  O  O97  1  0.514200  0.841800  0.012200  1.0  -1.0212
  O  O98  1  0.622400  0.872700  0.158900  1.0  -0.962
  O  O99  1  0.561900  0.754300  0.195000  1.0  -0.9464
  O  O100  1  0.503300  0.657300  0.996100  1.0  -1.0298
  O  O101  1  0.443100  0.629000  0.764300  1.0  -0.9594
  O  O102  1  0.369400  0.633900  0.989400  1.0  -1.0024
  O  O103  1  0.417100  0.745500  0.880200  1.0  -0.9481
  O  O104  1  0.500000  0.865400  0.276800  1.0  -0.9974
  O  O105  1  0.505200  0.984900  0.676800  1.0  -1.0292
  O  O106  1  0.421700  0.920700  0.508400  1.0  -0.9356
  O  O107  1  0.370900  0.989500  0.712700  1.0  -0.9835
  O  O108  1  0.440600  0.875100  0.753400  1.0  -0.9627
  O  O109  1  0.985800  0.658200  0.012200  1.0  -1.0215
  O  O110  1  0.877600  0.627300  0.158900  1.0  -0.962
  O  O111  1  0.938100  0.745700  0.195000  1.0  -0.9473
  O  O112  1  0.996700  0.842700  0.996100  1.0  -1.0301
  O  O113  1  0.056900  0.871000  0.764300  1.0  -0.9592
  O  O114  1  0.130600  0.866100  0.989400  1.0  -1.0016
  O  O115  1  0.082900  0.754500  0.880200  1.0  -0.9484
  O  O116  1  0.000000  0.634600  0.276800  1.0  -0.998
  O  O117  1  0.994800  0.515100  0.676800  1.0  -1.0295
  O  O118  1  0.078300  0.579300  0.508400  1.0  -0.9338
  O  O119  1  0.129100  0.510500  0.712700  1.0  -0.9846
  O  O120  1  0.059400  0.624900  0.753400  1.0  -0.964
  O  O121  1  0.658200  0.514200  0.012200  1.0  -1.023
  O  O122  1  0.627300  0.622400  0.158900  1.0  -0.9646
  O  O123  1  0.745700  0.561900  0.195000  1.0  -0.9491
  O  O124  1  0.842700  0.503300  0.996100  1.0  -1.0349
  O  O125  1  0.871000  0.443100  0.764300  1.0  -0.9601
  O  O126  1  0.866100  0.369400  0.989400  1.0  -1.0024
  O  O127  1  0.754500  0.417100  0.880200  1.0  -0.9511
  O  O128  1  0.634600  0.500000  0.276800  1.0  -0.9966
  O  O129  1  0.515100  0.505200  0.676800  1.0  -1.0309
  O  O130  1  0.579300  0.421700  0.508400  1.0  -0.9348
  O  O131  1  0.510500  0.370900  0.712700  1.0  -0.9846
  O  O132  1  0.624900  0.440600  0.753400  1.0  -0.9615
  O  O133  1  0.841800  0.985800  0.012200  1.0  -1.0232
  O  O134  1  0.872700  0.877600  0.158900  1.0  -0.9637
  O  O135  1  0.754300  0.938100  0.195000  1.0  -0.9489
  O  O136  1  0.657300  0.996700  0.996100  1.0  -1.0328
  O  O137  1  0.629000  0.056900  0.764300  1.0  -0.9591
  O  O138  1  0.633900  0.130600  0.989400  1.0  -1.0037
  O  O139  1  0.745500  0.082900  0.880200  1.0  -0.9506
  O  O140  1  0.865400  0.000000  0.276800  1.0  -0.9962
  O  O141  1  0.984900  0.994800  0.676800  1.0  -1.0294
  O  O142  1  0.920700  0.078300  0.508400  1.0  -0.935
  O  O143  1  0.989500  0.129100  0.712700  1.0  -0.9843
  O  O144  1  0.875100  0.059400  0.753400  1.0  -0.9616
