# generated using pymatgen
data_CdNiC7N6
_symmetry_space_group_name_H-M   'P 1'
_cell_length_a   13.95000000
_cell_length_b   26.71300000
_cell_length_c   7.62800000
_cell_angle_alpha   90.00000000
_cell_angle_beta   90.00000000
_cell_angle_gamma   90.00000000
_symmetry_Int_Tables_number   1
_chemical_formula_structural   CdNiC7N6
_chemical_formula_sum   'Cd8 Ni8 C56 N48'
_cell_volume   2842.54635780
_cell_formula_units_Z   8
loop_
 _symmetry_equiv_pos_site_id
 _symmetry_equiv_pos_as_xyz
  1  'x, y, z'
loop_
 _atom_site_type_symbol
 _atom_site_label
 _atom_site_symmetry_multiplicity
 _atom_site_fract_x
 _atom_site_fract_y
 _atom_site_fract_z
 _atom_site_occupancy
 _atom_site_charge
  Cd  Cd1  1  0.692050  0.500000  0.623470  1.0  1.0586
  Cd  Cd2  1  0.739300  0.769170  0.624630  1.0  1.0175
  Cd  Cd3  1  0.307950  0.000000  0.376530  1.0  1.0584
  Cd  Cd4  1  0.260700  0.269170  0.375370  1.0  1.0187
  Cd  Cd5  1  0.192050  0.500000  0.876530  1.0  1.0586
  Cd  Cd6  1  0.239300  0.769170  0.875370  1.0  1.0177
  Cd  Cd7  1  0.807950  0.000000  0.123470  1.0  1.0586
  Cd  Cd8  1  0.760700  0.269170  0.124630  1.0  1.0184
  Ni  Ni9  1  0.748640  0.633790  0.115150  1.0  0.0714
  Ni  Ni10  1  0.475640  0.383780  0.994800  1.0  0.3274
  Ni  Ni11  1  0.251360  0.133790  0.884850  1.0  0.0718
  Ni  Ni12  1  0.524360  0.883780  0.005200  1.0  0.3267
  Ni  Ni13  1  0.248640  0.633790  0.384850  1.0  0.0712
  Ni  Ni14  1  0.975640  0.383780  0.505200  1.0  0.327
  Ni  Ni15  1  0.751360  0.133790  0.615150  1.0  0.072
  Ni  Ni16  1  0.024360  0.883780  0.494800  1.0  0.3272
  C  C17  1  0.729600  0.585600  0.943000  1.0  0.1779
  C  C18  1  0.733700  0.586000  0.288800  1.0  0.1683
  C  C19  1  0.581000  0.416400  0.897900  1.0  0.1785
  C  C20  1  0.394900  0.434900  0.920300  1.0  0.1803
  C  C21  1  0.760600  0.681800  0.940000  1.0  0.1812
  C  C22  1  0.761100  0.682600  0.287300  1.0  0.1578
  C  C23  1  0.370000  0.351600  0.095000  1.0  0.1749
  C  C24  1  0.555700  0.332700  0.069000  1.0  0.172
  C  C25  1  0.551500  0.446000  0.361000  1.0  0.1198
  C  C26  1  0.496300  0.480600  0.433000  1.0  0.149
  C  C27  1  0.389900  0.480000  0.391000  1.0  0.0139
  C  C28  1  0.589800  0.828400  0.397000  1.0  0.0605
  C  C29  1  0.541500  0.785100  0.434000  1.0  0.1794
  C  C30  1  0.432900  0.786700  0.409000  1.0  -0.0134
  C  C31  1  0.270400  0.085600  0.057000  1.0  0.1775
  C  C32  1  0.266300  0.086000  0.711200  1.0  0.169
  C  C33  1  0.419000  0.916400  0.102100  1.0  0.1785
  C  C34  1  0.605100  0.934900  0.079700  1.0  0.1807
  C  C35  1  0.239400  0.181800  0.060000  1.0  0.1807
  C  C36  1  0.238900  0.182600  0.712700  1.0  0.1592
  C  C37  1  0.630000  0.851600  0.905000  1.0  0.1746
  C  C38  1  0.444300  0.832700  0.931000  1.0  0.1717
  C  C39  1  0.448500  0.946000  0.639000  1.0  0.1214
  C  C40  1  0.503700  0.980600  0.567000  1.0  0.1487
  C  C41  1  0.610100  0.980000  0.609000  1.0  0.0111
  C  C42  1  0.410200  0.328400  0.603000  1.0  0.0606
  C  C43  1  0.458500  0.285100  0.566000  1.0  0.1789
  C  C44  1  0.567100  0.286700  0.591000  1.0  -0.0158
  C  C45  1  0.229600  0.585600  0.557000  1.0  0.1774
  C  C46  1  0.233700  0.586000  0.211200  1.0  0.169
  C  C47  1  0.081000  0.416400  0.602100  1.0  0.1785
  C  C48  1  0.894900  0.434900  0.579700  1.0  0.1797
  C  C49  1  0.260600  0.681800  0.560000  1.0  0.1809
  C  C50  1  0.261100  0.682600  0.212700  1.0  0.1587
  C  C51  1  0.870000  0.351600  0.405000  1.0  0.1742
  C  C52  1  0.055700  0.332700  0.431000  1.0  0.1721
  C  C53  1  0.051500  0.446000  0.139000  1.0  0.1212
  C  C54  1  0.996300  0.480600  0.067000  1.0  0.1491
  C  C55  1  0.889900  0.480000  0.109000  1.0  0.0132
  C  C56  1  0.089800  0.828400  0.103000  1.0  0.0603
  C  C57  1  0.041500  0.785100  0.066000  1.0  0.179
  C  C58  1  0.932900  0.786700  0.091000  1.0  -0.0133
  C  C59  1  0.770400  0.085600  0.443000  1.0  0.1778
  C  C60  1  0.766300  0.086000  0.788800  1.0  0.1683
  C  C61  1  0.919000  0.916400  0.397900  1.0  0.1784
  C  C62  1  0.105100  0.934900  0.420300  1.0  0.181
  C  C63  1  0.739400  0.181800  0.440000  1.0  0.181
  C  C64  1  0.738900  0.182600  0.787300  1.0  0.1584
  C  C65  1  0.130000  0.851600  0.595000  1.0  0.1755
  C  C66  1  0.944300  0.832700  0.569000  1.0  0.1721
  C  C67  1  0.948500  0.946000  0.861000  1.0  0.1201
  C  C68  1  0.003700  0.980600  0.933000  1.0  0.1487
  C  C69  1  0.110100  0.980000  0.891000  1.0  0.0119
  C  C70  1  0.910200  0.328400  0.897000  1.0  0.0609
  C  C71  1  0.958500  0.285100  0.934000  1.0  0.1793
  C  C72  1  0.067100  0.286700  0.909000  1.0  -0.0159
  N  N73  1  0.717700  0.556800  0.835900  1.0  -0.4136
  N  N74  1  0.724300  0.557300  0.399500  1.0  -0.3704
  N  N75  1  0.642900  0.437600  0.832000  1.0  -0.4225
  N  N76  1  0.345200  0.465900  0.875800  1.0  -0.4326
  N  N77  1  0.652800  0.442600  0.394000  1.0  -0.2909
  N  N78  1  0.528200  0.513000  0.571300  1.0  -0.284
  N  N79  1  0.761700  0.711800  0.835100  1.0  -0.3837
  N  N80  1  0.765200  0.712000  0.395700  1.0  -0.4056
  N  N81  1  0.307000  0.332400  0.159000  1.0  -0.408
  N  N82  1  0.607200  0.302600  0.116300  1.0  -0.4064
  N  N83  1  0.697300  0.827300  0.403000  1.0  -0.2651
  N  N84  1  0.572400  0.755900  0.586900  1.0  -0.2905
  N  N85  1  0.282300  0.056800  0.164100  1.0  -0.4133
  N  N86  1  0.275700  0.057300  0.600500  1.0  -0.3685
  N  N87  1  0.357100  0.937600  0.168000  1.0  -0.423
  N  N88  1  0.654800  0.965900  0.124200  1.0  -0.4329
  N  N89  1  0.347200  0.942600  0.606000  1.0  -0.293
  N  N90  1  0.471800  0.013000  0.428700  1.0  -0.2846
  N  N91  1  0.238300  0.211800  0.164900  1.0  -0.3847
  N  N92  1  0.234800  0.212000  0.604300  1.0  -0.4048
  N  N93  1  0.693000  0.832400  0.841000  1.0  -0.4068
  N  N94  1  0.392800  0.802600  0.883700  1.0  -0.4061
  N  N95  1  0.302700  0.327300  0.597000  1.0  -0.2649
  N  N96  1  0.427600  0.255900  0.413100  1.0  -0.2915
  N  N97  1  0.217700  0.556800  0.664100  1.0  -0.4137
  N  N98  1  0.224300  0.557300  0.100500  1.0  -0.3678
  N  N99  1  0.142900  0.437600  0.668000  1.0  -0.4227
  N  N100  1  0.845200  0.465900  0.624200  1.0  -0.4335
  N  N101  1  0.152800  0.442600  0.106000  1.0  -0.2909
  N  N102  1  0.028200  0.513000  0.928700  1.0  -0.2835
  N  N103  1  0.261700  0.711800  0.664900  1.0  -0.3843
  N  N104  1  0.265200  0.712000  0.104300  1.0  -0.4045
  N  N105  1  0.807000  0.332400  0.341000  1.0  -0.4077
  N  N106  1  0.107200  0.302600  0.383700  1.0  -0.4056
  N  N107  1  0.197300  0.827300  0.097000  1.0  -0.2656
  N  N108  1  0.072400  0.755900  0.913100  1.0  -0.2899
  N  N109  1  0.782300  0.056800  0.335900  1.0  -0.4136
  N  N110  1  0.775700  0.057300  0.899500  1.0  -0.3712
  N  N111  1  0.857100  0.937600  0.332000  1.0  -0.4226
  N  N112  1  0.154800  0.965900  0.375800  1.0  -0.4323
  N  N113  1  0.847200  0.942600  0.894000  1.0  -0.2933
  N  N114  1  0.971800  0.013000  0.071300  1.0  -0.2855
  N  N115  1  0.738300  0.211800  0.335100  1.0  -0.3842
  N  N116  1  0.734800  0.212000  0.895700  1.0  -0.4055
  N  N117  1  0.193000  0.832400  0.659000  1.0  -0.4071
  N  N118  1  0.892800  0.802600  0.616300  1.0  -0.4071
  N  N119  1  0.802700  0.327300  0.903000  1.0  -0.2642
  N  N120  1  0.927600  0.255900  0.086900  1.0  -0.2919
