# generated using pymatgen
data_ZnNiH10(C11O4)2
_symmetry_space_group_name_H-M   'P 1'
_cell_length_a   24.50020000
_cell_length_b   24.50020000
_cell_length_c   24.50020000
_cell_angle_alpha   93.87260000
_cell_angle_beta   117.79000000
_cell_angle_gamma   117.79000000
_symmetry_Int_Tables_number   1
_chemical_formula_structural   ZnNiH10(C11O4)2
_chemical_formula_sum   'Zn8 Ni8 H80 C176 O64'
_cell_volume   10719.92514724
_cell_formula_units_Z   8
loop_
 _symmetry_equiv_pos_site_id
 _symmetry_equiv_pos_as_xyz
  1  'x, y, z'
loop_
 _atom_site_type_symbol
 _atom_site_label
 _atom_site_symmetry_multiplicity
 _atom_site_fract_x
 _atom_site_fract_y
 _atom_site_fract_z
 _atom_site_occupancy
 _atom_site_charge
  Zn  Zn1  1  0.006260  0.231900  0.698500  1.0  1.068
  Zn  Zn2  1  0.466600  0.774360  0.768100  1.0  1.07
  Zn  Zn3  1  0.993740  0.692240  0.225640  1.0  1.0677
  Zn  Zn4  1  0.508670  0.981520  0.950630  1.0  1.0319
  Zn  Zn5  1  0.969110  0.527150  0.018480  1.0  1.0302
  Zn  Zn6  1  0.491330  0.441960  0.472850  1.0  1.0289
  Zn  Zn7  1  0.030890  0.049370  0.558040  1.0  1.0317
  Zn  Zn8  1  0.533400  0.301500  0.307760  1.0  1.0688
  Ni  Ni9  1  0.372780  0.885680  0.791700  1.0  0.8999
  Ni  Ni10  1  0.627220  0.418920  0.512900  1.0  0.9022
  Ni  Ni11  1  0.423120  0.118910  0.233970  1.0  0.7722
  Ni  Ni12  1  0.884940  0.766030  0.189150  1.0  0.7681
  Ni  Ni13  1  0.093980  0.208300  0.581080  1.0  0.9065
  Ni  Ni14  1  0.115060  0.304210  0.881090  1.0  0.7709
  Ni  Ni15  1  0.576880  0.810850  0.695790  1.0  0.7737
  Ni  Ni16  1  0.906020  0.487100  0.114320  1.0  0.8989
  H  H17  1  0.795900  0.197300  0.284800  1.0  0.1383
  H  H18  1  0.663900  0.986900  0.755000  1.0  0.1172
  H  H19  1  0.198200  0.886900  0.321900  1.0  0.1172
  H  H20  1  0.283100  0.782000  0.929300  1.0  0.1137
  H  H21  1  0.002500  0.553200  0.837100  1.0  0.1121
  H  H22  1  0.204100  0.488900  0.401400  1.0  0.1375
  H  H23  1  0.283900  0.449300  0.446800  1.0  0.113
  H  H24  1  0.603400  0.539300  0.787900  1.0  0.1251
  H  H25  1  0.260000  0.965200  0.793800  1.0  0.1197
  H  H26  1  0.812600  0.325600  0.868800  1.0  0.1146
  H  H27  1  0.952700  0.201200  0.887100  1.0  0.1058
  H  H28  1  0.171400  0.206200  0.466200  1.0  0.1204
  H  H29  1  0.864200  0.214100  0.498900  1.0  0.1109
  H  H30  1  0.367600  0.514600  0.341000  1.0  0.1061
  H  H31  1  0.830500  0.281000  0.432700  1.0  0.1195
  H  H32  1  0.231900  0.245000  0.908900  1.0  0.1178
  H  H33  1  0.047300  0.934400  0.248500  1.0  0.106
  H  H34  1  0.201200  0.101200  0.746200  1.0  0.1117
  H  H35  1  0.801800  0.123700  0.688700  1.0  0.1164
  H  H36  1  0.435000  0.311300  0.113100  1.0  0.1168
  H  H37  1  0.236200  0.216100  0.416100  1.0  0.1218
  H  H38  1  0.828600  0.294800  0.034800  1.0  0.1196
  H  H39  1  0.092300  0.433900  0.693600  1.0  0.1119
  H  H40  1  0.751400  0.212100  0.815500  1.0  0.1228
  H  H41  1  0.336700  0.654000  0.424500  1.0  0.1241
  H  H42  1  0.167500  0.461100  0.885400  1.0  0.1165
  H  H43  1  0.770500  0.682700  0.346000  1.0  0.126
  H  H44  1  0.543200  0.487000  0.674400  1.0  0.1165
  H  H45  1  0.135800  0.634700  0.349900  1.0  0.1101
  H  H46  1  0.663300  0.087800  0.317300  1.0  0.1243
  H  H47  1  0.259700  0.658400  0.566100  1.0  0.1127
  H  H48  1  0.912500  0.715200  0.511100  1.0  0.1354
  H  H49  1  0.173600  0.659000  0.026600  1.0  0.1055
  H  H50  1  0.260200  0.709700  0.997100  1.0  0.1231
  H  H51  1  0.748600  0.702100  0.844900  1.0  0.13
  H  H52  1  0.632400  0.973400  0.147000  1.0  0.1047
  H  H53  1  0.716100  0.162900  0.165400  1.0  0.1121
  H  H54  1  0.229500  0.575500  0.912200  1.0  0.1251
  H  H55  1  0.763800  0.179900  0.979900  1.0  0.1238
  H  H56  1  0.798800  0.545000  0.900000  1.0  0.1109
  H  H57  1  0.800000  0.583900  0.820100  1.0  0.123
  H  H58  1  0.142800  0.046500  0.297900  1.0  0.1276
  H  H59  1  0.336100  0.091100  0.323000  1.0  0.1164
  H  H60  1  0.629400  0.628700  0.923500  1.0  0.1168
  H  H61  1  0.248600  0.064100  0.460700  1.0  0.1243
  H  H62  1  0.314100  0.112900  0.065600  1.0  0.1051
  H  H63  1  0.284800  0.650100  0.785900  1.0  0.1105
  H  H64  1  0.715200  0.501100  0.365300  1.0  0.1106
  H  H65  1  0.251400  0.096300  0.953500  1.0  0.1314
  H  H66  1  0.685900  0.751500  0.798800  1.0  0.104
  H  H67  1  0.645000  0.100000  0.898800  1.0  0.1121
  H  H68  1  0.716900  0.646200  0.498900  1.0  0.1135
  H  H69  1  0.848300  0.567300  0.397800  1.0  0.1193
  H  H70  1  0.147300  0.501100  0.218000  1.0  0.1138
  H  H71  1  0.355000  0.253800  0.455000  1.0  0.1107
  H  H72  1  0.169500  0.602200  0.450500  1.0  0.1198
  H  H73  1  0.370600  0.294100  0.999300  1.0  0.1184
  H  H74  1  0.087500  0.598600  0.802700  1.0  0.1361
  H  H75  1  0.200000  0.020100  0.783900  1.0  0.1234
  H  H76  1  0.424300  0.706400  0.538900  1.0  0.1179
  H  H77  1  0.826400  0.853000  0.485400  1.0  0.1055
  H  H78  1  0.456800  0.131200  0.943800  1.0  0.1164
  H  H79  1  0.151700  0.549500  0.719000  1.0  0.1193
  H  H80  1  0.739800  0.736900  0.449500  1.0  0.1277
  H  H81  1  0.857200  0.155100  0.903700  1.0  0.1265
  H  H82  1  0.575700  0.114600  0.282100  1.0  0.1168
  H  H83  1  0.997500  0.834600  0.550700  1.0  0.1125
  H  H84  1  0.396600  0.184500  0.935900  1.0  0.1238
  H  H85  1  0.740000  0.533800  0.705200  1.0  0.1213
  H  H86  1  0.294800  0.000700  0.371300  1.0  0.1178
  H  H87  1  0.852700  0.070700  0.353800  1.0  0.114
  H  H88  1  0.565000  0.678100  0.876300  1.0  0.1168
  H  H89  1  0.768100  0.677000  0.013100  1.0  0.1164
  H  H90  1  0.907700  0.601300  0.341600  1.0  0.113
  H  H91  1  0.740300  0.306400  0.398700  1.0  0.1129
  H  H92  1  0.705200  0.076500  0.705900  1.0  0.1175
  H  H93  1  0.712600  0.002900  0.263100  1.0  0.1232
  H  H94  1  0.187400  0.056200  0.513000  1.0  0.1155
  H  H95  1  0.287400  0.550500  0.290300  1.0  0.1276
  H  H96  1  0.832500  0.717900  0.293600  1.0  0.1166
  C  C97  1  0.054600  0.584100  0.869100  1.0  -0.0541
  C  C98  1  0.283600  0.754910  0.900110  1.0  -0.0953
  C  C99  1  0.709500  0.077600  0.816100  1.0  -0.015
  C  C100  1  0.339500  0.124490  0.349190  1.0  -0.103
  C  C101  1  0.877100  0.565170  0.023070  1.0  0.6992
  C  C102  1  0.351000  0.220700  0.427900  1.0  -0.0986
  C  C103  1  0.243800  0.621600  0.426600  1.0  0.0397
  C  C104  1  0.080700  0.363000  0.771300  1.0  0.7022
  C  C105  1  0.188000  0.178100  0.465900  1.0  -0.0513
  C  C106  1  0.823000  0.631950  0.026150  1.0  -0.1126
  C  C107  1  0.766100  0.228700  0.859600  1.0  -0.0528
  C  C108  1  0.775300  0.650810  0.990310  1.0  -0.1059
  C  C109  1  0.641000  0.654300  0.898300  1.0  -0.1436
  C  C110  1  0.369100  0.140400  0.906500  1.0  -0.052
  C  C111  1  0.401100  0.239940  0.407840  1.0  -0.0304
  C  C112  1  0.113200  0.899700  0.278900  1.0  -0.1352
  C  C113  1  0.189600  0.591600  0.354000  1.0  -0.0161
  C  C114  1  0.154500  0.014500  0.302400  1.0  -0.096
  C  C115  1  0.598900  0.006740  0.838840  1.0  -0.0305
  C  C116  1  0.813200  0.129500  0.732300  1.0  -0.0372
  C  C117  1  0.595400  0.506800  0.704000  1.0  -0.0469
  C  C118  1  0.131800  0.231550  0.790550  1.0  0.7208
  C  C119  1  0.417200  0.222700  0.171900  1.0  0.7347
  C  C120  1  0.237600  0.646000  0.835600  1.0  -0.0114
  C  C121  1  0.861400  0.392700  0.989700  1.0  0.7195
  C  C122  1  0.254300  0.141800  0.845700  1.0  0.0045
  C  C123  1  0.397200  0.267700  0.080900  1.0  -0.0389
  C  C124  1  0.591700  0.228700  0.309400  1.0  0.701
  C  C125  1  0.715000  0.130900  0.185500  1.0  -0.0561
  C  C126  1  0.602800  0.683700  0.870500  1.0  -0.04
  C  C127  1  0.394200  0.191050  0.368050  1.0  -0.1156
  C  C128  1  0.667100  0.504770  0.412670  1.0  -0.0658
  C  C129  1  0.040600  0.609860  0.231060  1.0  0.7217
  C  C130  1  0.832100  0.592160  0.993260  1.0  -0.0295
  C  C131  1  0.252100  0.042500  0.816400  1.0  -0.147
  C  C132  1  0.756000  0.101700  0.742700  1.0  -0.1482
  C  C133  1  0.712100  0.697600  0.852100  1.0  -0.0965
  C  C134  1  0.404600  0.108600  0.911400  1.0  -0.0474
  C  C135  1  0.918100  0.851700  0.520800  1.0  -0.1262
  C  C136  1  0.973000  0.927100  0.542300  1.0  0.6897
  C  C137  1  0.778900  0.247100  0.402000  1.0  -0.1477
  C  C138  1  0.441000  0.209450  0.341250  1.0  0.7231
  C  C139  1  0.154900  0.531800  0.752900  1.0  -0.1522
  C  C140  1  0.818600  0.716700  0.476700  1.0  0.052
  C  C141  1  0.762400  0.598000  0.408400  1.0  -0.0183
  C  C142  1  0.907900  0.162330  0.495230  1.0  -0.065
  C  C143  1  0.384800  0.457700  0.430700  1.0  0.6893
  C  C144  1  0.105200  0.611600  0.848200  1.0  -0.1009
  C  C145  1  0.763400  0.151800  0.257000  1.0  -0.0975
  C  C146  1  0.845100  0.598000  0.376900  1.0  -0.1497
  C  C147  1  0.627500  0.148300  0.312000  1.0  -0.04
  C  C148  1  0.287900  0.140000  0.985500  1.0  -0.0967
  C  C149  1  0.945400  0.814500  0.529500  1.0  -0.0514
  C  C150  1  0.359000  0.257300  0.013300  1.0  -0.1462
  C  C151  1  0.792800  0.572100  0.923100  1.0  -0.099
  C  C152  1  0.760000  0.101900  0.283300  1.0  0.0505
  C  C153  1  0.379200  0.213500  0.100300  1.0  -0.1363
  C  C154  1  0.330900  0.479200  0.397300  1.0  -0.1296
  C  C155  1  0.097300  0.548170  0.215270  1.0  -0.117
  C  C156  1  0.240000  0.523300  0.341900  1.0  0.052
  C  C157  1  0.902700  0.117970  0.450870  1.0  -0.1147
  C  C158  1  0.809200  0.123400  0.357600  1.0  0.0321
  C  C159  1  0.177000  0.203150  0.808950  1.0  -0.1164
  C  C160  1  0.226100  0.183600  0.435700  1.0  -0.1447
  C  C161  1  0.886800  0.165700  0.786500  1.0  -0.1356
  C  C162  1  0.145200  0.528690  0.245090  1.0  -0.0951
  C  C163  1  0.825000  0.320200  0.956400  1.0  -0.1317
  C  C164  1  0.845500  0.147900  0.860000  1.0  -0.0973
  C  C165  1  0.167900  0.161160  0.760060  1.0  -0.0303
  C  C166  1  0.902200  0.175300  0.849900  1.0  -0.0461
  C  C167  1  0.799400  0.667000  0.346200  1.0  -0.1013
  C  C168  1  0.716400  0.616510  0.471310  1.0  -0.0962
  C  C169  1  0.712200  0.534100  0.722100  1.0  -0.0499
  C  C170  1  0.287800  0.009900  0.821900  1.0  -0.0494
  C  C171  1  0.296100  0.154300  0.408600  1.0  0.0038
  C  C172  1  0.348700  0.683600  0.562500  1.0  -0.1064
  C  C173  1  0.894800  0.743000  0.506400  1.0  -0.0971
  C  C174  1  0.186800  0.919100  0.316300  1.0  -0.0388
  C  C175  1  0.773300  0.110800  0.807500  1.0  0.0581
  C  C176  1  0.332900  0.784730  0.882030  1.0  -0.1144
  C  C177  1  0.207200  0.130300  0.779300  1.0  -0.098
  C  C178  1  0.092100  0.587330  0.254430  1.0  -0.0656
  C  C179  1  0.233900  0.093500  0.462600  1.0  -0.0531
  C  C180  1  0.679200  0.132400  0.333000  1.0  -0.101
  C  C181  1  0.745700  0.591400  0.887500  1.0  0.0022
  C  C182  1  0.630900  0.537400  0.771300  1.0  -0.0532
  C  C183  1  0.244000  0.986700  0.345700  1.0  -0.1444
  C  C184  1  0.791400  0.755600  0.469000  1.0  -0.1546
  C  C185  1  0.333500  0.508800  0.352300  1.0  -0.0372
  C  C186  1  0.696700  0.662500  0.889200  1.0  0.0596
  C  C187  1  0.812000  0.277900  0.990100  1.0  -0.0497
  C  C188  1  0.765800  0.642400  0.451600  1.0  0.0332
  C  C189  1  0.725200  0.262400  0.381000  1.0  -0.0401
  C  C190  1  0.773900  0.209600  0.957500  1.0  -0.1478
  C  C191  1  0.226700  0.034200  0.337500  1.0  0.0609
  C  C192  1  0.651300  0.213800  0.334900  1.0  -0.1068
  C  C193  1  0.274800  0.655800  0.537200  1.0  -0.0341
  C  C194  1  0.195000  0.573400  0.817200  1.0  0.0414
  C  C195  1  0.751000  0.185490  0.892290  1.0  0.0649
  C  C196  1  0.666500  0.018800  0.175300  1.0  -0.0408
  C  C197  1  0.320800  0.653800  0.453200  1.0  -0.1039
  C  C198  1  0.919300  0.690600  0.282300  1.0  0.7024
  C  C199  1  0.615200  0.045900  0.072900  1.0  0.689
  C  C200  1  0.236600  0.493600  0.388400  1.0  -0.0988
  C  C201  1  0.290500  0.106600  0.368100  1.0  -0.0148
  C  C202  1  0.175000  0.131400  0.495200  1.0  -0.1326
  C  C203  1  0.802800  0.296000  0.891400  1.0  -0.0504
  C  C204  1  0.756200  0.182800  0.377800  1.0  0.041
  C  C205  1  0.053500  0.523900  0.141400  1.0  0.7134
  C  C206  1  0.843500  0.824700  0.491200  1.0  -0.0378
  C  C207  1  0.325400  0.150100  0.052300  1.0  -0.0509
  C  C208  1  0.636200  0.504800  0.679800  1.0  -0.133
  C  C209  1  0.878900  0.665100  0.316400  1.0  -0.1092
  C  C210  1  0.284900  0.676900  0.815800  1.0  -0.1134
  C  C211  1  0.861100  0.184200  0.469100  1.0  -0.1116
  C  C212  1  0.097800  0.947700  0.273100  1.0  -0.0423
  C  C213  1  0.706800  0.565510  0.814510  1.0  0.0653
  C  C214  1  0.249000  0.141290  0.434490  1.0  0.0654
  C  C215  1  0.372500  0.684500  0.520800  1.0  -0.0417
  C  C216  1  0.050800  0.828100  0.245300  1.0  0.7355
  C  C217  1  0.403000  0.010300  0.871700  1.0  0.7084
  C  C218  1  0.408300  0.717700  0.637000  1.0  0.7028
  C  C219  1  0.868200  0.658750  0.099750  1.0  0.7237
  C  C220  1  0.224700  0.215010  0.875510  1.0  -0.1048
  C  C221  1  0.621200  0.430740  0.390140  1.0  0.7238
  C  C222  1  0.703900  0.112500  0.858200  1.0  0.0038
  C  C223  1  0.378800  0.768940  0.809540  1.0  0.723
  C  C224  1  0.234200  0.685800  0.876600  1.0  0.0319
  C  C225  1  0.382500  0.858600  0.912100  1.0  0.7136
  C  C226  1  0.620800  0.721100  0.834300  1.0  -0.1354
  C  C227  1  0.221100  0.623100  0.468200  1.0  -0.1511
  C  C228  1  0.605800  0.973850  0.796850  1.0  -0.1164
  C  C229  1  0.122900  0.145970  0.688070  1.0  0.7006
  C  C230  1  0.713400  0.035800  0.244400  1.0  -0.1557
  C  C231  1  0.881400  0.619000  0.344200  1.0  -0.0393
  C  C232  1  0.181400  0.658100  0.898100  1.0  0.0509
  C  C233  1  0.197200  0.088600  0.493200  1.0  -0.0456
  C  C234  1  0.854800  0.099890  0.383490  1.0  -0.0929
  C  C235  1  0.027000  0.569300  0.954100  1.0  0.6888
  C  C236  1  0.582800  0.754700  0.805500  1.0  0.7336
  C  C237  1  0.081900  0.602700  0.933600  1.0  -0.1299
  C  C238  1  0.669100  0.066400  0.148300  1.0  -0.1283
  C  C239  1  0.949200  0.194500  0.777300  1.0  0.7365
  C  C240  1  0.293200  0.107710  0.858710  1.0  0.0658
  C  C241  1  0.660500  0.009690  0.784990  1.0  -0.1047
  C  C242  1  0.738500  0.631900  0.922400  1.0  -0.0129
  C  C243  1  0.190800  0.548400  0.314200  1.0  0.0318
  C  C244  1  0.285000  0.470500  0.415900  1.0  -0.0557
  C  C245  1  0.138600  0.128300  0.531300  1.0  0.7219
  C  C246  1  0.597000  0.468700  0.607300  1.0  0.7101
  C  C247  1  0.559000  0.900250  0.768450  1.0  0.7221
  C  C248  1  0.715100  0.530900  0.392000  1.0  -0.1127
  C  C249  1  0.303300  0.192500  0.965800  1.0  0.0595
  C  C250  1  0.200600  0.546800  0.867600  1.0  -0.0994
  C  C251  1  0.946500  0.087900  0.470400  1.0  0.7096
  C  C252  1  0.542100  0.976930  0.854030  1.0  0.7006
  C  C253  1  0.836300  0.688000  0.315500  1.0  -0.0391
  C  C254  1  0.667100  0.549130  0.451830  1.0  -0.1149
  C  C255  1  0.286600  0.531000  0.322400  1.0  -0.1575
  C  C256  1  0.747900  0.564300  0.790400  1.0  -0.1467
  C  C257  1  0.617500  0.529600  0.476100  1.0  0.7117
  C  C258  1  0.810400  0.164400  0.402000  1.0  -0.0167
  C  C259  1  0.121100  0.437500  0.786200  1.0  -0.1061
  C  C260  1  0.363800  0.043600  0.868600  1.0  -0.1317
  C  C261  1  0.138900  0.608000  0.323100  1.0  -0.1123
  C  C262  1  0.163700  0.479200  0.851700  1.0  -0.0403
  C  C263  1  0.332900  0.745570  0.837670  1.0  -0.065
  C  C264  1  0.208600  0.677600  0.964200  1.0  -0.1577
  C  C265  1  0.805000  0.622200  0.378400  1.0  0.0407
  C  C266  1  0.959400  0.190460  0.569260  1.0  0.7244
  C  C267  1  0.649000  0.076900  0.869700  1.0  -0.099
  C  C268  1  0.457900  0.311930  0.434830  1.0  0.6999
  C  C269  1  0.156500  0.647700  0.981200  1.0  -0.0368
  C  C270  1  0.674600  0.726900  0.824700  1.0  -0.0535
  C  C271  1  0.118600  0.462800  0.737600  1.0  -0.0406
  C  C272  1  0.261500  0.183900  0.893400  1.0  -0.0165
  O  O273  1  0.935130  0.045740  0.428470  1.0  -0.4608
  O  O274  1  0.548280  0.872900  0.714940  1.0  -0.6528
  O  O275  1  0.528910  0.186400  0.258110  1.0  -0.6162
  O  O276  1  0.617270  0.571530  0.506660  1.0  -0.466
  O  O277  1  0.382730  0.889390  0.954260  1.0  -0.4643
  O  O278  1  0.525820  0.331550  0.470810  1.0  -0.6362
  O  O279  1  0.388740  0.175340  0.188080  1.0  -0.6381
  O  O280  1  0.004250  0.537690  0.112340  1.0  -0.6565
  O  O281  1  0.567160  0.991500  0.913540  1.0  -0.5799
  O  O282  1  0.860740  0.529190  0.055010  1.0  -0.6361
  O  O283  1  0.077960  0.086460  0.653620  1.0  -0.5774
  O  O284  1  0.932390  0.194780  0.720990  1.0  -0.5806
  O  O285  1  0.012740  0.213400  0.824660  1.0  -0.6333
  O  O286  1  0.419900  0.748520  0.818700  1.0  -0.5718
  O  O287  1  0.533750  0.869680  0.797950  1.0  -0.5606
  O  O288  1  0.842040  0.675380  0.127100  1.0  -0.6523
  O  O289  1  0.464420  0.031580  0.925800  1.0  -0.5557
  O  O290  1  0.040500  0.951800  0.575700  1.0  -0.5714
  O  O291  1  0.922040  0.575660  0.008500  1.0  -0.5769
  O  O292  1  0.610100  0.284070  0.340570  1.0  -0.5779
  O  O293  1  0.929820  0.181300  0.601200  1.0  -0.5696
  O  O294  1  0.367930  0.961630  0.820160  1.0  -0.6444
  O  O295  1  0.928290  0.741890  0.270800  1.0  -0.6172
  O  O296  1  0.526210  0.737610  0.805220  1.0  -0.5783
  O  O297  1  0.474180  0.944990  0.805730  1.0  -0.6374
  O  O298  1  0.067610  0.788600  0.262390  1.0  -0.5787
  O  O299  1  0.969500  0.569570  0.197870  1.0  -0.6554
  O  O300  1  0.632070  0.452230  0.593700  1.0  -0.6447
  O  O301  1  0.894220  0.432840  0.968420  1.0  -0.5556
  O  O302  1  0.030500  0.228370  0.600070  1.0  -0.6543
  O  O303  1  0.566400  0.986000  0.042000  1.0  -0.5512
  O  O304  1  0.628300  0.399930  0.430430  1.0  -0.6571
  O  O305  1  0.623900  0.088700  0.048200  1.0  -0.5695
  O  O306  1  0.056500  0.326030  0.715930  1.0  -0.5777
  O  O307  1  0.389900  0.730470  0.673970  1.0  -0.5778
  O  O308  1  0.574650  0.466560  0.462310  1.0  -0.6586
  O  O309  1  0.071730  0.202050  0.735800  1.0  -0.5582
  O  O310  1  0.432840  0.346380  0.424340  1.0  -0.5821
  O  O311  1  0.157960  0.285060  0.833340  1.0  -0.6523
  O  O312  1  0.070180  0.671380  0.251480  1.0  -0.5698
  O  O313  1  0.943500  0.659430  0.269530  1.0  -0.5776
  O  O314  1  0.928270  0.664070  0.130320  1.0  -0.56
  O  O315  1  0.995750  0.108090  0.533440  1.0  -0.6589
  O  O316  1  0.139260  0.194270  0.668450  1.0  -0.6397
  O  O317  1  0.071710  0.342510  0.813600  1.0  -0.6154
  O  O318  1  0.371700  0.802130  0.771630  1.0  -0.6554
  O  O319  1  0.580100  0.398800  0.328620  1.0  -0.5705
  O  O320  1  0.473790  0.279010  0.211400  1.0  -0.5815
  O  O321  1  0.858530  0.406300  0.038370  1.0  -0.6467
  O  O322  1  0.451720  0.166660  0.324620  1.0  -0.6504
  O  O323  1  0.376100  0.424300  0.464800  1.0  -0.5704
  O  O324  1  0.056000  0.580400  0.014000  1.0  -0.5497
  O  O325  1  0.466250  0.264200  0.335930  1.0  -0.5599
  O  O326  1  0.141470  0.179840  0.547770  1.0  -0.6457
  O  O327  1  0.064870  0.493340  0.110610  1.0  -0.465
  O  O328  1  0.433600  0.475600  0.419600  1.0  -0.5496
  O  O329  1  0.471090  0.729200  0.657490  1.0  -0.6138
  O  O330  1  0.105780  0.074200  0.538620  1.0  -0.5578
  O  O331  1  0.944000  0.958000  0.524400  1.0  -0.5481
  O  O332  1  0.987260  0.811920  0.200660  1.0  -0.6335
  O  O333  1  0.959500  0.535200  0.911300  1.0  -0.5727
  O  O334  1  0.425350  0.887660  0.891910  1.0  -0.6595
  O  O335  1  0.611260  0.799340  0.786600  1.0  -0.6383
  O  O336  1  0.535580  0.461380  0.567160  1.0  -0.5571
