# generated using pymatgen
data_Zn5Co3H40(C11O4)8
_symmetry_space_group_name_H-M   'P 1'
_cell_length_a   25.33000000
_cell_length_b   25.33000000
_cell_length_c   33.46700000
_cell_angle_alpha   90.00000000
_cell_angle_beta   90.00000000
_cell_angle_gamma   90.00000000
_symmetry_Int_Tables_number   1
_chemical_formula_structural   Zn5Co3H40(C11O4)8
_chemical_formula_sum   'Zn20 Co12 H160 C352 O128'
_cell_volume   21472.72505630
_cell_formula_units_Z   4
loop_
 _symmetry_equiv_pos_site_id
 _symmetry_equiv_pos_as_xyz
  1  'x, y, z'
loop_
 _atom_site_type_symbol
 _atom_site_label
 _atom_site_symmetry_multiplicity
 _atom_site_fract_x
 _atom_site_fract_y
 _atom_site_fract_z
 _atom_site_occupancy
 _atom_site_charge
  Zn  Zn1  1  0.269090  0.761820  0.288550  1.0  1.0346
  Zn  Zn2  1  0.235720  0.768890  0.461610  1.0  1.0369
  Zn  Zn3  1  0.638330  0.732170  0.152230  1.0  1.0851
  Zn  Zn4  1  0.769090  0.261820  0.788550  1.0  1.0346
  Zn  Zn5  1  0.735720  0.268890  0.961610  1.0  1.0369
  Zn  Zn6  1  0.138330  0.232170  0.652230  1.0  1.0851
  Zn  Zn7  1  0.730910  0.238180  0.288550  1.0  1.0343
  Zn  Zn8  1  0.764280  0.231110  0.461610  1.0  1.0361
  Zn  Zn9  1  0.361670  0.267830  0.152230  1.0  1.089
  Zn  Zn10  1  0.230910  0.738180  0.788550  1.0  1.0343
  Zn  Zn11  1  0.264280  0.731110  0.961610  1.0  1.0361
  Zn  Zn12  1  0.861670  0.767830  0.652230  1.0  1.089
  Zn  Zn13  1  0.761820  0.730910  0.711450  1.0  1.0342
  Zn  Zn14  1  0.768890  0.764280  0.538390  1.0  1.0358
  Zn  Zn15  1  0.261820  0.230910  0.211450  1.0  1.0342
  Zn  Zn16  1  0.268890  0.264280  0.038390  1.0  1.0358
  Zn  Zn17  1  0.238180  0.269090  0.711450  1.0  1.0337
  Zn  Zn18  1  0.231110  0.235720  0.538390  1.0  1.0365
  Zn  Zn19  1  0.738180  0.769090  0.211450  1.0  1.0337
  Zn  Zn20  1  0.731110  0.735720  0.038390  1.0  1.0365
  Co  Co21  1  0.232170  0.861670  0.347770  1.0  1.0682
  Co  Co22  1  0.765760  0.654370  0.465010  1.0  0.7995
  Co  Co23  1  0.732170  0.361670  0.847770  1.0  1.0682
  Co  Co24  1  0.265760  0.154370  0.965010  1.0  0.7995
  Co  Co25  1  0.767830  0.138330  0.347770  1.0  1.0695
  Co  Co26  1  0.234240  0.345630  0.465010  1.0  0.797
  Co  Co27  1  0.267830  0.638330  0.847770  1.0  1.0695
  Co  Co28  1  0.734240  0.845630  0.965010  1.0  0.797
  Co  Co29  1  0.654370  0.234240  0.534990  1.0  0.7958
  Co  Co30  1  0.154370  0.734240  0.034990  1.0  0.7958
  Co  Co31  1  0.345630  0.765760  0.534990  1.0  0.7965
  Co  Co32  1  0.845630  0.265760  0.034990  1.0  0.7965
  H  H33  1  0.066200  0.784800  0.286200  1.0  0.1132
  H  H34  1  0.074100  0.790700  0.424300  1.0  0.1078
  H  H35  1  0.985500  0.726200  0.275700  1.0  0.1227
  H  H36  1  0.903000  0.728800  0.242900  1.0  0.0986
  H  H37  1  0.858500  0.855600  0.306600  1.0  0.1112
  H  H38  1  0.940900  0.853300  0.342300  1.0  0.1296
  H  H39  1  0.946400  0.715800  0.371200  1.0  0.1198
  H  H40  1  0.870900  0.703400  0.409800  1.0  0.1156
  H  H41  1  0.914600  0.823700  0.481900  1.0  0.1113
  H  H42  1  0.988200  0.840500  0.441000  1.0  0.1184
  H  H43  1  0.447000  0.784700  0.460800  1.0  0.112
  H  H44  1  0.422300  0.783600  0.323300  1.0  0.1094
  H  H45  1  0.555700  0.700100  0.398300  1.0  0.13
  H  H46  1  0.632800  0.683200  0.432700  1.0  0.103
  H  H47  1  0.617100  0.818300  0.494900  1.0  0.1104
  H  H48  1  0.536000  0.834000  0.463700  1.0  0.1243
  H  H49  1  0.480200  0.722900  0.301600  1.0  0.1168
  H  H50  1  0.542400  0.717800  0.249700  1.0  0.1139
  H  H51  1  0.635200  0.822700  0.310000  1.0  0.1183
  H  H52  1  0.574100  0.825000  0.361700  1.0  0.1168
  H  H53  1  0.566200  0.284800  0.786200  1.0  0.1132
  H  H54  1  0.574100  0.290700  0.924300  1.0  0.1078
  H  H55  1  0.485500  0.226200  0.775700  1.0  0.1227
  H  H56  1  0.403000  0.228800  0.742900  1.0  0.0986
  H  H57  1  0.358500  0.355600  0.806600  1.0  0.1112
  H  H58  1  0.440900  0.353300  0.842300  1.0  0.1296
  H  H59  1  0.446400  0.215800  0.871200  1.0  0.1198
  H  H60  1  0.370900  0.203400  0.909800  1.0  0.1156
  H  H61  1  0.414600  0.323700  0.981900  1.0  0.1113
  H  H62  1  0.488200  0.340500  0.941000  1.0  0.1184
  H  H63  1  0.947000  0.284700  0.960800  1.0  0.112
  H  H64  1  0.922300  0.283600  0.823300  1.0  0.1094
  H  H65  1  0.055700  0.200100  0.898300  1.0  0.129
  H  H66  1  0.132800  0.183200  0.932700  1.0  0.1023
  H  H67  1  0.117100  0.318300  0.994900  1.0  0.1104
  H  H68  1  0.036000  0.334000  0.963700  1.0  0.1243
  H  H69  1  0.980200  0.222900  0.801600  1.0  0.1168
  H  H70  1  0.042400  0.217800  0.749700  1.0  0.1139
  H  H71  1  0.135200  0.322700  0.810000  1.0  0.1183
  H  H72  1  0.074100  0.325000  0.861700  1.0  0.1168
  H  H73  1  0.933800  0.215200  0.286200  1.0  0.113
  H  H74  1  0.925900  0.209300  0.424300  1.0  0.1078
  H  H75  1  0.014500  0.273800  0.275700  1.0  0.1238
  H  H76  1  0.097000  0.271200  0.242900  1.0  0.0969
  H  H77  1  0.141500  0.144400  0.306600  1.0  0.1103
  H  H78  1  0.059100  0.146700  0.342300  1.0  0.1293
  H  H79  1  0.053600  0.284200  0.371200  1.0  0.1209
  H  H80  1  0.129100  0.296600  0.409800  1.0  0.1165
  H  H81  1  0.085400  0.176300  0.481900  1.0  0.1114
  H  H82  1  0.011800  0.159500  0.441000  1.0  0.118
  H  H83  1  0.553000  0.215300  0.460800  1.0  0.1121
  H  H84  1  0.577700  0.216400  0.323300  1.0  0.11
  H  H85  1  0.444300  0.299900  0.398300  1.0  0.1319
  H  H86  1  0.367200  0.316800  0.432700  1.0  0.1037
  H  H87  1  0.382900  0.181700  0.494900  1.0  0.11
  H  H88  1  0.464000  0.166000  0.463700  1.0  0.1239
  H  H89  1  0.519800  0.277100  0.301600  1.0  0.1172
  H  H90  1  0.457600  0.282200  0.249700  1.0  0.1145
  H  H91  1  0.364800  0.177300  0.310000  1.0  0.1175
  H  H92  1  0.425900  0.175000  0.361700  1.0  0.1179
  H  H93  1  0.433800  0.715200  0.786200  1.0  0.113
  H  H94  1  0.425900  0.709300  0.924300  1.0  0.1078
  H  H95  1  0.514500  0.773800  0.775700  1.0  0.1238
  H  H96  1  0.597000  0.771200  0.742900  1.0  0.0969
  H  H97  1  0.641500  0.644400  0.806600  1.0  0.1103
  H  H98  1  0.559100  0.646700  0.842300  1.0  0.1293
  H  H99  1  0.553600  0.784200  0.871200  1.0  0.1209
  H  H100  1  0.629100  0.796600  0.909800  1.0  0.1165
  H  H101  1  0.585400  0.676300  0.981900  1.0  0.1114
  H  H102  1  0.511800  0.659500  0.941000  1.0  0.118
  H  H103  1  0.053000  0.715300  0.960800  1.0  0.1121
  H  H104  1  0.077700  0.716400  0.823300  1.0  0.11
  H  H105  1  0.944300  0.799900  0.898300  1.0  0.131
  H  H106  1  0.867200  0.816800  0.932700  1.0  0.103
  H  H107  1  0.882900  0.681700  0.994900  1.0  0.11
  H  H108  1  0.964000  0.666000  0.963700  1.0  0.1239
  H  H109  1  0.019800  0.777100  0.801600  1.0  0.1172
  H  H110  1  0.957600  0.782200  0.749700  1.0  0.1145
  H  H111  1  0.864800  0.677300  0.810000  1.0  0.1175
  H  H112  1  0.925900  0.675000  0.861700  1.0  0.1179
  H  H113  1  0.784800  0.933800  0.713800  1.0  0.1126
  H  H114  1  0.790700  0.925900  0.575700  1.0  0.1081
  H  H115  1  0.726200  0.014500  0.724300  1.0  0.123
  H  H116  1  0.728800  0.097000  0.757100  1.0  0.1003
  H  H117  1  0.855600  0.141500  0.693400  1.0  0.1115
  H  H118  1  0.853300  0.059100  0.657700  1.0  0.1289
  H  H119  1  0.715800  0.053600  0.628800  1.0  0.1202
  H  H120  1  0.703400  0.129100  0.590200  1.0  0.1156
  H  H121  1  0.823700  0.085400  0.518100  1.0  0.112
  H  H122  1  0.840500  0.011800  0.559000  1.0  0.1175
  H  H123  1  0.784700  0.553000  0.539200  1.0  0.1127
  H  H124  1  0.783600  0.577700  0.676700  1.0  0.1105
  H  H125  1  0.700100  0.444300  0.601700  1.0  0.1289
  H  H126  1  0.683200  0.367200  0.567300  1.0  0.1026
  H  H127  1  0.818300  0.382900  0.505100  1.0  0.1103
  H  H128  1  0.834000  0.464000  0.536300  1.0  0.1242
  H  H129  1  0.722900  0.519800  0.698400  1.0  0.1171
  H  H130  1  0.717800  0.457600  0.750300  1.0  0.1143
  H  H131  1  0.822700  0.364800  0.690000  1.0  0.118
  H  H132  1  0.825000  0.425900  0.638300  1.0  0.1179
  H  H133  1  0.284800  0.433800  0.213800  1.0  0.1126
  H  H134  1  0.290700  0.425900  0.075700  1.0  0.1081
  H  H135  1  0.226200  0.514500  0.224300  1.0  0.123
  H  H136  1  0.228800  0.597000  0.257100  1.0  0.1003
  H  H137  1  0.355600  0.641500  0.193400  1.0  0.1115
  H  H138  1  0.353300  0.559100  0.157700  1.0  0.1289
  H  H139  1  0.215800  0.553600  0.128800  1.0  0.1202
  H  H140  1  0.203400  0.629100  0.090200  1.0  0.1156
  H  H141  1  0.323700  0.585400  0.018100  1.0  0.112
  H  H142  1  0.340500  0.511800  0.059000  1.0  0.1175
  H  H143  1  0.284700  0.053000  0.039200  1.0  0.1127
  H  H144  1  0.283600  0.077700  0.176700  1.0  0.1105
  H  H145  1  0.200100  0.944300  0.101700  1.0  0.1279
  H  H146  1  0.183200  0.867200  0.067300  1.0  0.102
  H  H147  1  0.318300  0.882900  0.005100  1.0  0.1103
  H  H148  1  0.334000  0.964000  0.036300  1.0  0.1242
  H  H149  1  0.222900  0.019800  0.198400  1.0  0.1171
  H  H150  1  0.217800  0.957600  0.250300  1.0  0.1143
  H  H151  1  0.322700  0.864800  0.190000  1.0  0.118
  H  H152  1  0.325000  0.925900  0.138300  1.0  0.1179
  H  H153  1  0.215200  0.066200  0.713800  1.0  0.1129
  H  H154  1  0.209300  0.074100  0.575700  1.0  0.1081
  H  H155  1  0.273800  0.985500  0.724300  1.0  0.1221
  H  H156  1  0.271200  0.903000  0.757100  1.0  0.1002
  H  H157  1  0.144400  0.858500  0.693400  1.0  0.1103
  H  H158  1  0.146700  0.940900  0.657700  1.0  0.1292
  H  H159  1  0.284200  0.946400  0.628800  1.0  0.1197
  H  H160  1  0.296600  0.870900  0.590200  1.0  0.1159
  H  H161  1  0.176300  0.914600  0.518100  1.0  0.1118
  H  H162  1  0.159500  0.988200  0.559000  1.0  0.1183
  H  H163  1  0.215300  0.447000  0.539200  1.0  0.1127
  H  H164  1  0.216400  0.422300  0.676700  1.0  0.1107
  H  H165  1  0.299900  0.555700  0.601700  1.0  0.1284
  H  H166  1  0.316800  0.632800  0.567300  1.0  0.1022
  H  H167  1  0.181700  0.617100  0.505100  1.0  0.1099
  H  H168  1  0.166000  0.536000  0.536300  1.0  0.1239
  H  H169  1  0.277100  0.480200  0.698400  1.0  0.117
  H  H170  1  0.282200  0.542400  0.750300  1.0  0.1145
  H  H171  1  0.177300  0.635200  0.690000  1.0  0.118
  H  H172  1  0.175000  0.574100  0.638300  1.0  0.1206
  H  H173  1  0.715200  0.566200  0.213800  1.0  0.1129
  H  H174  1  0.709300  0.574100  0.075700  1.0  0.1081
  H  H175  1  0.773800  0.485500  0.224300  1.0  0.1221
  H  H176  1  0.771200  0.403000  0.257100  1.0  0.1002
  H  H177  1  0.644400  0.358500  0.193400  1.0  0.1103
  H  H178  1  0.646700  0.440900  0.157700  1.0  0.1292
  H  H179  1  0.784200  0.446400  0.128800  1.0  0.1197
  H  H180  1  0.796600  0.370900  0.090200  1.0  0.1159
  H  H181  1  0.676300  0.414600  0.018100  1.0  0.1118
  H  H182  1  0.659500  0.488200  0.059000  1.0  0.1183
  H  H183  1  0.715300  0.947000  0.039200  1.0  0.1127
  H  H184  1  0.716400  0.922300  0.176700  1.0  0.1107
  H  H185  1  0.799900  0.055700  0.101700  1.0  0.1275
  H  H186  1  0.816800  0.132800  0.067300  1.0  0.1014
  H  H187  1  0.681700  0.117100  0.005100  1.0  0.1099
  H  H188  1  0.666000  0.036000  0.036300  1.0  0.1239
  H  H189  1  0.777100  0.980200  0.198400  1.0  0.117
  H  H190  1  0.782200  0.042400  0.250300  1.0  0.1145
  H  H191  1  0.677300  0.135200  0.190000  1.0  0.118
  H  H192  1  0.675000  0.074100  0.138300  1.0  0.1206
  C  C193  1  0.119600  0.788000  0.374900  1.0  -0.0485
  C  C194  1  0.117600  0.785400  0.332870  1.0  -0.1182
  C  C195  1  0.067900  0.785400  0.314520  1.0  -0.0753
  C  C196  1  0.020500  0.786300  0.336060  1.0  0.0112
  C  C197  1  0.022600  0.786000  0.377700  1.0  0.0323
  C  C198  1  0.072500  0.788500  0.396020  1.0  -0.1263
  C  C199  1  0.168100  0.791600  0.400250  1.0  0.7175
  C  C200  1  0.163300  0.783300  0.305980  1.0  0.6913
  C  C201  1  0.970200  0.789000  0.312800  1.0  0.0286
  C  C202  1  0.959900  0.752100  0.282700  1.0  -0.1367
  C  C203  1  0.910800  0.754200  0.262900  1.0  -0.0512
  C  C204  1  0.874300  0.792100  0.272000  1.0  -0.1237
  C  C205  1  0.884100  0.829300  0.300800  1.0  -0.045
  C  C206  1  0.933500  0.828000  0.322200  1.0  -0.0796
  C  C207  1  0.820900  0.792200  0.251300  1.0  0.6507
  C  C208  1  0.975100  0.779800  0.402530  1.0  0.0456
  C  C209  1  0.939500  0.738400  0.393200  1.0  -0.0953
  C  C210  1  0.894800  0.731000  0.416000  1.0  -0.0404
  C  C211  1  0.884900  0.764100  0.448170  1.0  -0.1205
  C  C212  1  0.920400  0.803100  0.458600  1.0  -0.0382
  C  C213  1  0.965000  0.812200  0.434900  1.0  -0.1374
  C  C214  1  0.834600  0.755500  0.472500  1.0  0.707
  C  C215  1  0.382900  0.786200  0.377020  1.0  -0.0399
  C  C216  1  0.391300  0.786500  0.417860  1.0  -0.1157
  C  C217  1  0.441900  0.783400  0.432740  1.0  -0.1046
  C  C218  1  0.485300  0.778600  0.408250  1.0  -0.0109
  C  C219  1  0.479300  0.777000  0.366200  1.0  0.0419
  C  C220  1  0.427600  0.782400  0.351400  1.0  -0.1371
  C  C221  1  0.332060  0.791300  0.355730  1.0  0.7367
  C  C222  1  0.344940  0.786700  0.445750  1.0  0.7193
  C  C223  1  0.538000  0.768000  0.427550  1.0  0.0602
  C  C224  1  0.567300  0.723800  0.418500  1.0  -0.1211
  C  C225  1  0.613100  0.714100  0.438790  1.0  -0.0461
  C  C226  1  0.631500  0.748100  0.467950  1.0  -0.1377
  C  C227  1  0.603600  0.793700  0.476100  1.0  0.0013
  C  C228  1  0.556200  0.803600  0.457100  1.0  -0.1556
  C  C229  1  0.681900  0.735800  0.489330  1.0  0.7306
  C  C230  1  0.521800  0.773900  0.336460  1.0  0.0914
  C  C231  1  0.512000  0.742700  0.303200  1.0  -0.2352
  C  C232  1  0.548600  0.740200  0.272010  1.0  -0.0656
  C  C233  1  0.594400  0.771000  0.273970  1.0  -0.1518
  C  C234  1  0.603800  0.802400  0.308200  1.0  -0.026
  C  C235  1  0.567600  0.803700  0.338800  1.0  -0.0548
  C  C236  1  0.631500  0.770800  0.239430  1.0  0.7301
  C  C237  1  0.619600  0.288000  0.874900  1.0  -0.0485
  C  C238  1  0.617600  0.285400  0.832870  1.0  -0.1182
  C  C239  1  0.567900  0.285400  0.814520  1.0  -0.0753
  C  C240  1  0.520500  0.286300  0.836060  1.0  0.0112
  C  C241  1  0.522600  0.286000  0.877700  1.0  0.0323
  C  C242  1  0.572500  0.288500  0.896020  1.0  -0.1263
  C  C243  1  0.668100  0.291600  0.900250  1.0  0.7175
  C  C244  1  0.663300  0.283300  0.805980  1.0  0.6913
  C  C245  1  0.470200  0.289000  0.812800  1.0  0.0286
  C  C246  1  0.459900  0.252100  0.782700  1.0  -0.1367
  C  C247  1  0.410800  0.254200  0.762900  1.0  -0.0512
  C  C248  1  0.374300  0.292100  0.772000  1.0  -0.1237
  C  C249  1  0.384100  0.329300  0.800800  1.0  -0.045
  C  C250  1  0.433500  0.328000  0.822200  1.0  -0.0796
  C  C251  1  0.320900  0.292200  0.751300  1.0  0.6507
  C  C252  1  0.475100  0.279800  0.902530  1.0  0.0456
  C  C253  1  0.439500  0.238400  0.893200  1.0  -0.0953
  C  C254  1  0.394800  0.231000  0.916000  1.0  -0.0404
  C  C255  1  0.384900  0.264100  0.948170  1.0  -0.1205
  C  C256  1  0.420400  0.303100  0.958600  1.0  -0.0382
  C  C257  1  0.465000  0.312200  0.934900  1.0  -0.1374
  C  C258  1  0.334600  0.255500  0.972500  1.0  0.707
  C  C259  1  0.882900  0.286200  0.877020  1.0  -0.0399
  C  C260  1  0.891300  0.286500  0.917860  1.0  -0.1157
  C  C261  1  0.941900  0.283400  0.932740  1.0  -0.1046
  C  C262  1  0.985300  0.278600  0.908250  1.0  -0.0109
  C  C263  1  0.979300  0.277000  0.866200  1.0  0.0419
  C  C264  1  0.927600  0.282400  0.851400  1.0  -0.1371
  C  C265  1  0.832060  0.291300  0.855730  1.0  0.7367
  C  C266  1  0.844940  0.286700  0.945750  1.0  0.7193
  C  C267  1  0.038000  0.268000  0.927550  1.0  0.0602
  C  C268  1  0.067300  0.223800  0.918500  1.0  -0.1211
  C  C269  1  0.113100  0.214100  0.938790  1.0  -0.0461
  C  C270  1  0.131500  0.248100  0.967950  1.0  -0.1377
  C  C271  1  0.103600  0.293700  0.976100  1.0  0.0013
  C  C272  1  0.056200  0.303600  0.957100  1.0  -0.1556
  C  C273  1  0.181900  0.235800  0.989330  1.0  0.7306
  C  C274  1  0.021800  0.273900  0.836460  1.0  0.0914
  C  C275  1  0.012000  0.242700  0.803200  1.0  -0.2352
  C  C276  1  0.048600  0.240200  0.772010  1.0  -0.0656
  C  C277  1  0.094400  0.271000  0.773970  1.0  -0.1518
  C  C278  1  0.103800  0.302400  0.808200  1.0  -0.026
  C  C279  1  0.067600  0.303700  0.838800  1.0  -0.0548
  C  C280  1  0.131500  0.270800  0.739430  1.0  0.7301
  C  C281  1  0.880400  0.212000  0.374900  1.0  -0.0485
  C  C282  1  0.882400  0.214600  0.332870  1.0  -0.1201
  C  C283  1  0.932100  0.214600  0.314520  1.0  -0.0758
  C  C284  1  0.979500  0.213700  0.336060  1.0  0.0106
  C  C285  1  0.977400  0.214000  0.377700  1.0  0.0327
  C  C286  1  0.927500  0.211500  0.396020  1.0  -0.126
  C  C287  1  0.831900  0.208400  0.400250  1.0  0.7176
  C  C288  1  0.836700  0.216700  0.305980  1.0  0.6922
  C  C289  1  0.029800  0.211000  0.312800  1.0  0.0287
  C  C290  1  0.040100  0.247900  0.282700  1.0  -0.1354
  C  C291  1  0.089200  0.245800  0.262900  1.0  -0.0508
  C  C292  1  0.125700  0.207900  0.272000  1.0  -0.1228
  C  C293  1  0.115900  0.170700  0.300800  1.0  -0.0447
  C  C294  1  0.066500  0.172000  0.322200  1.0  -0.0807
  C  C295  1  0.179100  0.207800  0.251300  1.0  0.6497
  C  C296  1  0.024900  0.220200  0.402530  1.0  0.047
  C  C297  1  0.060500  0.261600  0.393200  1.0  -0.0967
  C  C298  1  0.105200  0.269000  0.416000  1.0  -0.0416
  C  C299  1  0.115100  0.235900  0.448170  1.0  -0.1209
  C  C300  1  0.079600  0.196900  0.458600  1.0  -0.0397
  C  C301  1  0.035000  0.187800  0.434900  1.0  -0.1384
  C  C302  1  0.165400  0.244500  0.472500  1.0  0.7069
  C  C303  1  0.617100  0.213800  0.377020  1.0  -0.0398
  C  C304  1  0.608700  0.213500  0.417860  1.0  -0.1157
  C  C305  1  0.558100  0.216600  0.432740  1.0  -0.1044
  C  C306  1  0.514700  0.221400  0.408250  1.0  -0.0102
  C  C307  1  0.520700  0.223000  0.366200  1.0  0.0428
  C  C308  1  0.572400  0.217600  0.351400  1.0  -0.1366
  C  C309  1  0.667940  0.208700  0.355730  1.0  0.7371
  C  C310  1  0.655060  0.213300  0.445750  1.0  0.7184
  C  C311  1  0.462000  0.232000  0.427550  1.0  0.0595
  C  C312  1  0.432700  0.276200  0.418500  1.0  -0.1221
  C  C313  1  0.386900  0.285900  0.438790  1.0  -0.0441
  C  C314  1  0.368500  0.251900  0.467950  1.0  -0.1378
  C  C315  1  0.396400  0.206300  0.476100  1.0  -0.002
  C  C316  1  0.443800  0.196400  0.457100  1.0  -0.1555
  C  C317  1  0.318100  0.264200  0.489330  1.0  0.7304
  C  C318  1  0.478200  0.226100  0.336460  1.0  0.0914
  C  C319  1  0.488000  0.257300  0.303200  1.0  -0.2318
  C  C320  1  0.451400  0.259800  0.272010  1.0  -0.067
  C  C321  1  0.405600  0.229000  0.273970  1.0  -0.1522
  C  C322  1  0.396200  0.197600  0.308200  1.0  -0.0271
  C  C323  1  0.432400  0.196300  0.338800  1.0  -0.0563
  C  C324  1  0.368500  0.229200  0.239430  1.0  0.7315
  C  C325  1  0.380400  0.712000  0.874900  1.0  -0.0485
  C  C326  1  0.382400  0.714600  0.832870  1.0  -0.1201
  C  C327  1  0.432100  0.714600  0.814520  1.0  -0.0758
  C  C328  1  0.479500  0.713700  0.836060  1.0  0.0106
  C  C329  1  0.477400  0.714000  0.877700  1.0  0.0327
  C  C330  1  0.427500  0.711500  0.896020  1.0  -0.126
  C  C331  1  0.331900  0.708400  0.900250  1.0  0.7176
  C  C332  1  0.336700  0.716700  0.805980  1.0  0.6922
  C  C333  1  0.529800  0.711000  0.812800  1.0  0.0287
  C  C334  1  0.540100  0.747900  0.782700  1.0  -0.1354
  C  C335  1  0.589200  0.745800  0.762900  1.0  -0.0508
  C  C336  1  0.625700  0.707900  0.772000  1.0  -0.1228
  C  C337  1  0.615900  0.670700  0.800800  1.0  -0.0447
  C  C338  1  0.566500  0.672000  0.822200  1.0  -0.0807
  C  C339  1  0.679100  0.707800  0.751300  1.0  0.6497
  C  C340  1  0.524900  0.720200  0.902530  1.0  0.047
  C  C341  1  0.560500  0.761600  0.893200  1.0  -0.0967
  C  C342  1  0.605200  0.769000  0.916000  1.0  -0.0416
  C  C343  1  0.615100  0.735900  0.948170  1.0  -0.1209
  C  C344  1  0.579600  0.696900  0.958600  1.0  -0.0397
  C  C345  1  0.535000  0.687800  0.934900  1.0  -0.1384
  C  C346  1  0.665400  0.744500  0.972500  1.0  0.7069
  C  C347  1  0.117100  0.713800  0.877020  1.0  -0.0398
  C  C348  1  0.108700  0.713500  0.917860  1.0  -0.1157
  C  C349  1  0.058100  0.716600  0.932740  1.0  -0.1044
  C  C350  1  0.014700  0.721400  0.908250  1.0  -0.0102
  C  C351  1  0.020700  0.723000  0.866200  1.0  0.0428
  C  C352  1  0.072400  0.717600  0.851400  1.0  -0.1366
  C  C353  1  0.167940  0.708700  0.855730  1.0  0.7371
  C  C354  1  0.155060  0.713300  0.945750  1.0  0.7184
  C  C355  1  0.962000  0.732000  0.927550  1.0  0.0595
  C  C356  1  0.932700  0.776200  0.918500  1.0  -0.1221
  C  C357  1  0.886900  0.785900  0.938790  1.0  -0.0441
  C  C358  1  0.868500  0.751900  0.967950  1.0  -0.1378
  C  C359  1  0.896400  0.706300  0.976100  1.0  -0.002
  C  C360  1  0.943800  0.696400  0.957100  1.0  -0.1555
  C  C361  1  0.818100  0.764200  0.989330  1.0  0.7304
  C  C362  1  0.978200  0.726100  0.836460  1.0  0.0914
  C  C363  1  0.988000  0.757300  0.803200  1.0  -0.2318
  C  C364  1  0.951400  0.759800  0.772010  1.0  -0.067
  C  C365  1  0.905600  0.729000  0.773970  1.0  -0.1522
  C  C366  1  0.896200  0.697600  0.808200  1.0  -0.0271
  C  C367  1  0.932400  0.696300  0.838800  1.0  -0.0563
  C  C368  1  0.868500  0.729200  0.739430  1.0  0.7315
  C  C369  1  0.788000  0.880400  0.625100  1.0  -0.0466
  C  C370  1  0.785400  0.882400  0.667130  1.0  -0.1174
  C  C371  1  0.785400  0.932100  0.685480  1.0  -0.0767
  C  C372  1  0.786300  0.979500  0.663940  1.0  0.0134
  C  C373  1  0.786000  0.977400  0.622300  1.0  0.0334
  C  C374  1  0.788500  0.927500  0.603980  1.0  -0.1254
  C  C375  1  0.791600  0.831900  0.599750  1.0  0.7177
  C  C376  1  0.783300  0.836700  0.694020  1.0  0.707
  C  C377  1  0.789000  0.029800  0.687200  1.0  0.0268
  C  C378  1  0.752100  0.040100  0.717300  1.0  -0.1323
  C  C379  1  0.754200  0.089200  0.737100  1.0  -0.0482
  C  C380  1  0.792100  0.125700  0.728000  1.0  -0.1223
  C  C381  1  0.829300  0.115900  0.699200  1.0  -0.0441
  C  C382  1  0.828000  0.066500  0.677800  1.0  -0.079
  C  C383  1  0.792200  0.179100  0.748700  1.0  0.6494
  C  C384  1  0.779800  0.024900  0.597470  1.0  0.0467
  C  C385  1  0.738400  0.060500  0.606800  1.0  -0.0919
  C  C386  1  0.731000  0.105200  0.584000  1.0  -0.0377
  C  C387  1  0.764100  0.115100  0.551830  1.0  -0.1187
  C  C388  1  0.803100  0.079600  0.541400  1.0  -0.0387
  C  C389  1  0.812200  0.035000  0.565100  1.0  -0.1356
  C  C390  1  0.755500  0.165400  0.527500  1.0  0.7052
  C  C391  1  0.786200  0.617100  0.622980  1.0  -0.0397
  C  C392  1  0.786500  0.608700  0.582140  1.0  -0.1165
  C  C393  1  0.783400  0.558100  0.567260  1.0  -0.1052
  C  C394  1  0.778600  0.514700  0.591750  1.0  -0.0104
  C  C395  1  0.777000  0.520700  0.633800  1.0  0.0423
  C  C396  1  0.782400  0.572400  0.648600  1.0  -0.1359
  C  C397  1  0.791300  0.667940  0.644270  1.0  0.736
  C  C398  1  0.786700  0.655060  0.554250  1.0  0.7205
  C  C399  1  0.768000  0.462000  0.572450  1.0  0.0602
  C  C400  1  0.723800  0.432700  0.581500  1.0  -0.1212
  C  C401  1  0.714100  0.386900  0.561210  1.0  -0.0391
  C  C402  1  0.748100  0.368500  0.532050  1.0  -0.139
  C  C403  1  0.793700  0.396400  0.523900  1.0  -0.0002
  C  C404  1  0.803600  0.443800  0.542900  1.0  -0.1561
  C  C405  1  0.735800  0.318100  0.510670  1.0  0.732
  C  C406  1  0.773900  0.478200  0.663540  1.0  0.0912
  C  C407  1  0.742700  0.488000  0.696800  1.0  -0.2332
  C  C408  1  0.740200  0.451400  0.727990  1.0  -0.067
  C  C409  1  0.771000  0.405600  0.726030  1.0  -0.1525
  C  C410  1  0.802400  0.396200  0.691800  1.0  -0.0243
  C  C411  1  0.803700  0.432400  0.661200  1.0  -0.0519
  C  C412  1  0.770800  0.368500  0.760570  1.0  0.731
  C  C413  1  0.288000  0.380400  0.125100  1.0  -0.0466
  C  C414  1  0.285400  0.382400  0.167130  1.0  -0.1174
  C  C415  1  0.285400  0.432100  0.185480  1.0  -0.0767
  C  C416  1  0.286300  0.479500  0.163940  1.0  0.0134
  C  C417  1  0.286000  0.477400  0.122300  1.0  0.0334
  C  C418  1  0.288500  0.427500  0.103980  1.0  -0.1254
  C  C419  1  0.291600  0.331900  0.099750  1.0  0.7177
  C  C420  1  0.283300  0.336700  0.194020  1.0  0.707
  C  C421  1  0.289000  0.529800  0.187200  1.0  0.0268
  C  C422  1  0.252100  0.540100  0.217300  1.0  -0.1323
  C  C423  1  0.254200  0.589200  0.237100  1.0  -0.0482
  C  C424  1  0.292100  0.625700  0.228000  1.0  -0.1223
  C  C425  1  0.329300  0.615900  0.199200  1.0  -0.0441
  C  C426  1  0.328000  0.566500  0.177800  1.0  -0.079
  C  C427  1  0.292200  0.679100  0.248700  1.0  0.6494
  C  C428  1  0.279800  0.524900  0.097470  1.0  0.0467
  C  C429  1  0.238400  0.560500  0.106800  1.0  -0.0919
  C  C430  1  0.231000  0.605200  0.084000  1.0  -0.0377
  C  C431  1  0.264100  0.615100  0.051830  1.0  -0.1187
  C  C432  1  0.303100  0.579600  0.041400  1.0  -0.0387
  C  C433  1  0.312200  0.535000  0.065100  1.0  -0.1356
  C  C434  1  0.255500  0.665400  0.027500  1.0  0.7052
  C  C435  1  0.286200  0.117100  0.122980  1.0  -0.0397
  C  C436  1  0.286500  0.108700  0.082140  1.0  -0.1165
  C  C437  1  0.283400  0.058100  0.067260  1.0  -0.1052
  C  C438  1  0.278600  0.014700  0.091750  1.0  -0.0104
  C  C439  1  0.277000  0.020700  0.133800  1.0  0.0423
  C  C440  1  0.282400  0.072400  0.148600  1.0  -0.1359
  C  C441  1  0.291300  0.167940  0.144270  1.0  0.736
  C  C442  1  0.286700  0.155060  0.054250  1.0  0.7205
  C  C443  1  0.268000  0.962000  0.072450  1.0  0.0602
  C  C444  1  0.223800  0.932700  0.081500  1.0  -0.1212
  C  C445  1  0.214100  0.886900  0.061210  1.0  -0.0391
  C  C446  1  0.248100  0.868500  0.032050  1.0  -0.139
  C  C447  1  0.293700  0.896400  0.023900  1.0  -0.0002
  C  C448  1  0.303600  0.943800  0.042900  1.0  -0.1561
  C  C449  1  0.235800  0.818100  0.010670  1.0  0.732
  C  C450  1  0.273900  0.978200  0.163540  1.0  0.0912
  C  C451  1  0.242700  0.988000  0.196800  1.0  -0.2332
  C  C452  1  0.240200  0.951400  0.227990  1.0  -0.067
  C  C453  1  0.271000  0.905600  0.226030  1.0  -0.1525
  C  C454  1  0.302400  0.896200  0.191800  1.0  -0.0243
  C  C455  1  0.303700  0.932400  0.161200  1.0  -0.0519
  C  C456  1  0.270800  0.868500  0.260570  1.0  0.731
  C  C457  1  0.212000  0.119600  0.625100  1.0  -0.0466
  C  C458  1  0.214600  0.117600  0.667130  1.0  -0.1172
  C  C459  1  0.214600  0.067900  0.685480  1.0  -0.0766
  C  C460  1  0.213700  0.020500  0.663940  1.0  0.0142
  C  C461  1  0.214000  0.022600  0.622300  1.0  0.0343
  C  C462  1  0.211500  0.072500  0.603980  1.0  -0.1252
  C  C463  1  0.208400  0.168100  0.599750  1.0  0.7179
  C  C464  1  0.216700  0.163300  0.694020  1.0  0.708
  C  C465  1  0.211000  0.970200  0.687200  1.0  0.0265
  C  C466  1  0.247900  0.959900  0.717300  1.0  -0.1329
  C  C467  1  0.245800  0.910800  0.737100  1.0  -0.047
  C  C468  1  0.207900  0.874300  0.728000  1.0  -0.122
  C  C469  1  0.170700  0.884100  0.699200  1.0  -0.0445
  C  C470  1  0.172000  0.933500  0.677800  1.0  -0.0786
  C  C471  1  0.207800  0.820900  0.748700  1.0  0.6498
  C  C472  1  0.220200  0.975100  0.597470  1.0  0.0472
  C  C473  1  0.261600  0.939500  0.606800  1.0  -0.0928
  C  C474  1  0.269000  0.894800  0.584000  1.0  -0.0375
  C  C475  1  0.235900  0.884900  0.551830  1.0  -0.1199
  C  C476  1  0.196900  0.920400  0.541400  1.0  -0.0371
  C  C477  1  0.187800  0.965000  0.565100  1.0  -0.138
  C  C478  1  0.244500  0.834600  0.527500  1.0  0.7053
  C  C479  1  0.213800  0.382900  0.622980  1.0  -0.0396
  C  C480  1  0.213500  0.391300  0.582140  1.0  -0.1177
  C  C481  1  0.216600  0.441900  0.567260  1.0  -0.1052
  C  C482  1  0.221400  0.485300  0.591750  1.0  -0.0106
  C  C483  1  0.223000  0.479300  0.633800  1.0  0.0426
  C  C484  1  0.217600  0.427600  0.648600  1.0  -0.1358
  C  C485  1  0.208700  0.332060  0.644270  1.0  0.7374
  C  C486  1  0.213300  0.344940  0.554250  1.0  0.7205
  C  C487  1  0.232000  0.538000  0.572450  1.0  0.0601
  C  C488  1  0.276200  0.567300  0.581500  1.0  -0.1192
  C  C489  1  0.285900  0.613100  0.561210  1.0  -0.039
  C  C490  1  0.251900  0.631500  0.532050  1.0  -0.1379
  C  C491  1  0.206300  0.603600  0.523900  1.0  -0.0009
  C  C492  1  0.196400  0.556200  0.542900  1.0  -0.157
  C  C493  1  0.264200  0.681900  0.510670  1.0  0.7321
  C  C494  1  0.226100  0.521800  0.663540  1.0  0.0918
  C  C495  1  0.257300  0.512000  0.696800  1.0  -0.2308
  C  C496  1  0.259800  0.548600  0.727990  1.0  -0.0658
  C  C497  1  0.229000  0.594400  0.726030  1.0  -0.1527
  C  C498  1  0.197600  0.603800  0.691800  1.0  -0.0256
  C  C499  1  0.196300  0.567600  0.661200  1.0  -0.0528
  C  C500  1  0.229200  0.631500  0.760570  1.0  0.7314
  C  C501  1  0.712000  0.619600  0.125100  1.0  -0.0466
  C  C502  1  0.714600  0.617600  0.167130  1.0  -0.1172
  C  C503  1  0.714600  0.567900  0.185480  1.0  -0.0766
  C  C504  1  0.713700  0.520500  0.163940  1.0  0.0142
  C  C505  1  0.714000  0.522600  0.122300  1.0  0.0343
  C  C506  1  0.711500  0.572500  0.103980  1.0  -0.1252
  C  C507  1  0.708400  0.668100  0.099750  1.0  0.7179
  C  C508  1  0.716700  0.663300  0.194020  1.0  0.708
  C  C509  1  0.711000  0.470200  0.187200  1.0  0.0265
  C  C510  1  0.747900  0.459900  0.217300  1.0  -0.1329
  C  C511  1  0.745800  0.410800  0.237100  1.0  -0.047
  C  C512  1  0.707900  0.374300  0.228000  1.0  -0.122
  C  C513  1  0.670700  0.384100  0.199200  1.0  -0.0445
  C  C514  1  0.672000  0.433500  0.177800  1.0  -0.0786
  C  C515  1  0.707800  0.320900  0.248700  1.0  0.6498
  C  C516  1  0.720200  0.475100  0.097470  1.0  0.0472
  C  C517  1  0.761600  0.439500  0.106800  1.0  -0.0928
  C  C518  1  0.769000  0.394800  0.084000  1.0  -0.0375
  C  C519  1  0.735900  0.384900  0.051830  1.0  -0.1199
  C  C520  1  0.696900  0.420400  0.041400  1.0  -0.0371
  C  C521  1  0.687800  0.465000  0.065100  1.0  -0.138
  C  C522  1  0.744500  0.334600  0.027500  1.0  0.7053
  C  C523  1  0.713800  0.882900  0.122980  1.0  -0.0396
  C  C524  1  0.713500  0.891300  0.082140  1.0  -0.1177
  C  C525  1  0.716600  0.941900  0.067260  1.0  -0.1052
  C  C526  1  0.721400  0.985300  0.091750  1.0  -0.0106
  C  C527  1  0.723000  0.979300  0.133800  1.0  0.0426
  C  C528  1  0.717600  0.927600  0.148600  1.0  -0.1358
  C  C529  1  0.708700  0.832060  0.144270  1.0  0.7374
  C  C530  1  0.713300  0.844940  0.054250  1.0  0.7205
  C  C531  1  0.732000  0.038000  0.072450  1.0  0.0601
  C  C532  1  0.776200  0.067300  0.081500  1.0  -0.1192
  C  C533  1  0.785900  0.113100  0.061210  1.0  -0.039
  C  C534  1  0.751900  0.131500  0.032050  1.0  -0.1379
  C  C535  1  0.706300  0.103600  0.023900  1.0  -0.0009
  C  C536  1  0.696400  0.056200  0.042900  1.0  -0.157
  C  C537  1  0.764200  0.181900  0.010670  1.0  0.7321
  C  C538  1  0.726100  0.021800  0.163540  1.0  0.0918
  C  C539  1  0.757300  0.012000  0.196800  1.0  -0.2308
  C  C540  1  0.759800  0.048600  0.227990  1.0  -0.0658
  C  C541  1  0.729000  0.094400  0.226030  1.0  -0.1527
  C  C542  1  0.697600  0.103800  0.191800  1.0  -0.0256
  C  C543  1  0.696300  0.067600  0.161200  1.0  -0.0528
  C  C544  1  0.729200  0.131500  0.260570  1.0  0.7314
  O  O545  1  0.199740  0.829590  0.399020  1.0  -0.6383
  O  O546  1  0.173870  0.755040  0.426000  1.0  -0.5772
  O  O547  1  0.209610  0.785540  0.323160  1.0  -0.6479
  O  O548  1  0.157680  0.777000  0.269500  1.0  -0.482
  O  O549  1  0.811200  0.753600  0.229900  1.0  -0.5455
  O  O550  1  0.791500  0.832500  0.255500  1.0  -0.6433
  O  O551  1  0.799240  0.728740  0.456620  1.0  -0.6147
  O  O552  1  0.832130  0.776300  0.506470  1.0  -0.5748
  O  O553  1  0.321370  0.755390  0.331400  1.0  -0.5977
  O  O554  1  0.306210  0.832980  0.361800  1.0  -0.6562
  O  O555  1  0.301980  0.768310  0.432440  1.0  -0.5779
  O  O556  1  0.352290  0.803710  0.480360  1.0  -0.638
  O  O557  1  0.701680  0.772500  0.509140  1.0  -0.5921
  O  O558  1  0.698740  0.689500  0.488220  1.0  -0.629
  O  O559  1  0.678300  0.785530  0.246290  1.0  -0.5665
  O  O560  1  0.612860  0.754000  0.207280  1.0  -0.6581
  O  O561  1  0.699740  0.329590  0.899020  1.0  -0.6383
  O  O562  1  0.673870  0.255040  0.926000  1.0  -0.5772
  O  O563  1  0.709610  0.285540  0.823160  1.0  -0.6479
  O  O564  1  0.657680  0.277000  0.769500  1.0  -0.482
  O  O565  1  0.311200  0.253600  0.729900  1.0  -0.5455
  O  O566  1  0.291500  0.332500  0.755500  1.0  -0.6433
  O  O567  1  0.299240  0.228740  0.956620  1.0  -0.6147
  O  O568  1  0.332130  0.276300  0.006470  1.0  -0.5748
  O  O569  1  0.821370  0.255390  0.831400  1.0  -0.5977
  O  O570  1  0.806210  0.332980  0.861800  1.0  -0.6562
  O  O571  1  0.801980  0.268310  0.932440  1.0  -0.5779
  O  O572  1  0.852290  0.303710  0.980360  1.0  -0.638
  O  O573  1  0.201680  0.272500  0.009140  1.0  -0.5921
  O  O574  1  0.198740  0.189500  0.988220  1.0  -0.629
  O  O575  1  0.178300  0.285530  0.746290  1.0  -0.5665
  O  O576  1  0.112860  0.254000  0.707280  1.0  -0.6581
  O  O577  1  0.800260  0.170410  0.399020  1.0  -0.6389
  O  O578  1  0.826130  0.244960  0.426000  1.0  -0.5757
  O  O579  1  0.790390  0.214460  0.323160  1.0  -0.6475
  O  O580  1  0.842320  0.223000  0.269500  1.0  -0.48
  O  O581  1  0.188800  0.246400  0.229900  1.0  -0.5466
  O  O582  1  0.208500  0.167500  0.255500  1.0  -0.644
  O  O583  1  0.200760  0.271260  0.456620  1.0  -0.6152
  O  O584  1  0.167870  0.223700  0.506470  1.0  -0.5747
  O  O585  1  0.678630  0.244610  0.331400  1.0  -0.5974
  O  O586  1  0.693790  0.167020  0.361800  1.0  -0.6516
  O  O587  1  0.698020  0.231690  0.432440  1.0  -0.5794
  O  O588  1  0.647710  0.196290  0.480360  1.0  -0.6374
  O  O589  1  0.298320  0.227500  0.509140  1.0  -0.59
  O  O590  1  0.301260  0.310500  0.488220  1.0  -0.6321
  O  O591  1  0.321700  0.214470  0.246290  1.0  -0.5646
  O  O592  1  0.387140  0.246000  0.207280  1.0  -0.6553
  O  O593  1  0.300260  0.670410  0.899020  1.0  -0.6389
  O  O594  1  0.326130  0.744960  0.926000  1.0  -0.5757
  O  O595  1  0.290390  0.714460  0.823160  1.0  -0.6475
  O  O596  1  0.342320  0.723000  0.769500  1.0  -0.48
  O  O597  1  0.688800  0.746400  0.729900  1.0  -0.5466
  O  O598  1  0.708500  0.667500  0.755500  1.0  -0.644
  O  O599  1  0.700760  0.771260  0.956620  1.0  -0.6152
  O  O600  1  0.667870  0.723700  0.006470  1.0  -0.5747
  O  O601  1  0.178630  0.744610  0.831400  1.0  -0.5974
  O  O602  1  0.193790  0.667020  0.861800  1.0  -0.6516
  O  O603  1  0.198020  0.731690  0.932440  1.0  -0.5794
  O  O604  1  0.147710  0.696290  0.980360  1.0  -0.6374
  O  O605  1  0.798320  0.727500  0.009140  1.0  -0.59
  O  O606  1  0.801260  0.810500  0.988220  1.0  -0.6321
  O  O607  1  0.821700  0.714470  0.746290  1.0  -0.5646
  O  O608  1  0.887140  0.746000  0.707280  1.0  -0.6553
  O  O609  1  0.829590  0.800260  0.600980  1.0  -0.6391
  O  O610  1  0.755040  0.826130  0.574000  1.0  -0.5746
  O  O611  1  0.785540  0.790390  0.676840  1.0  -0.6489
  O  O612  1  0.777000  0.842320  0.730500  1.0  -0.4814
  O  O613  1  0.753600  0.188800  0.770100  1.0  -0.5455
  O  O614  1  0.832500  0.208500  0.744500  1.0  -0.6449
  O  O615  1  0.728740  0.200760  0.543380  1.0  -0.6133
  O  O616  1  0.776300  0.167870  0.493530  1.0  -0.5751
  O  O617  1  0.755390  0.678630  0.668600  1.0  -0.5981
  O  O618  1  0.832980  0.693790  0.638200  1.0  -0.6539
  O  O619  1  0.768310  0.698020  0.567560  1.0  -0.5794
  O  O620  1  0.803710  0.647710  0.519640  1.0  -0.6374
  O  O621  1  0.772500  0.298320  0.490860  1.0  -0.5868
  O  O622  1  0.689500  0.301260  0.511780  1.0  -0.6283
  O  O623  1  0.785530  0.321700  0.753710  1.0  -0.5668
  O  O624  1  0.754000  0.387140  0.792720  1.0  -0.6551
  O  O625  1  0.329590  0.300260  0.100980  1.0  -0.6391
  O  O626  1  0.255040  0.326130  0.074000  1.0  -0.5746
  O  O627  1  0.285540  0.290390  0.176840  1.0  -0.6489
  O  O628  1  0.277000  0.342320  0.230500  1.0  -0.4814
  O  O629  1  0.253600  0.688800  0.270100  1.0  -0.5455
  O  O630  1  0.332500  0.708500  0.244500  1.0  -0.6449
  O  O631  1  0.228740  0.700760  0.043380  1.0  -0.6133
  O  O632  1  0.276300  0.667870  0.993530  1.0  -0.5751
  O  O633  1  0.255390  0.178630  0.168600  1.0  -0.5981
  O  O634  1  0.332980  0.193790  0.138200  1.0  -0.6539
  O  O635  1  0.268310  0.198020  0.067560  1.0  -0.5794
  O  O636  1  0.303710  0.147710  0.019640  1.0  -0.6374
  O  O637  1  0.272500  0.798320  0.990860  1.0  -0.5868
  O  O638  1  0.189500  0.801260  0.011780  1.0  -0.6283
  O  O639  1  0.285530  0.821700  0.253710  1.0  -0.5668
  O  O640  1  0.254000  0.887140  0.292720  1.0  -0.6551
  O  O641  1  0.170410  0.199740  0.600980  1.0  -0.6406
  O  O642  1  0.244960  0.173870  0.574000  1.0  -0.5743
  O  O643  1  0.214460  0.209610  0.676840  1.0  -0.6485
  O  O644  1  0.223000  0.157680  0.730500  1.0  -0.4783
  O  O645  1  0.246400  0.811200  0.770100  1.0  -0.5473
  O  O646  1  0.167500  0.791500  0.744500  1.0  -0.6461
  O  O647  1  0.271260  0.799240  0.543380  1.0  -0.6147
  O  O648  1  0.223700  0.832130  0.493530  1.0  -0.5746
  O  O649  1  0.244610  0.321370  0.668600  1.0  -0.5984
  O  O650  1  0.167020  0.306210  0.638200  1.0  -0.6555
  O  O651  1  0.231690  0.301980  0.567560  1.0  -0.5796
  O  O652  1  0.196290  0.352290  0.519640  1.0  -0.6366
  O  O653  1  0.227500  0.701680  0.490860  1.0  -0.588
  O  O654  1  0.310500  0.698740  0.511780  1.0  -0.6257
  O  O655  1  0.214470  0.678300  0.753710  1.0  -0.5659
  O  O656  1  0.246000  0.612860  0.792720  1.0  -0.6569
  O  O657  1  0.670410  0.699740  0.100980  1.0  -0.6406
  O  O658  1  0.744960  0.673870  0.074000  1.0  -0.5743
  O  O659  1  0.714460  0.709610  0.176840  1.0  -0.6485
  O  O660  1  0.723000  0.657680  0.230500  1.0  -0.4783
  O  O661  1  0.746400  0.311200  0.270100  1.0  -0.5473
  O  O662  1  0.667500  0.291500  0.244500  1.0  -0.6461
  O  O663  1  0.771260  0.299240  0.043380  1.0  -0.6147
  O  O664  1  0.723700  0.332130  0.993530  1.0  -0.5746
  O  O665  1  0.744610  0.821370  0.168600  1.0  -0.5984
  O  O666  1  0.667020  0.806210  0.138200  1.0  -0.6555
  O  O667  1  0.731690  0.801980  0.067560  1.0  -0.5796
  O  O668  1  0.696290  0.852290  0.019640  1.0  -0.6366
  O  O669  1  0.727500  0.201680  0.990860  1.0  -0.588
  O  O670  1  0.810500  0.198740  0.011780  1.0  -0.6257
  O  O671  1  0.714470  0.178300  0.253710  1.0  -0.5659
  O  O672  1  0.746000  0.112860  0.292720  1.0  -0.6569
