# generated using pymatgen
data_Zn2H8C15O7
_symmetry_space_group_name_H-M   'P 1'
_cell_length_a   16.26440000
_cell_length_b   16.26440000
_cell_length_c   30.56300000
_cell_angle_alpha   90.00000000
_cell_angle_beta   90.00000000
_cell_angle_gamma   90.00000000
_symmetry_Int_Tables_number   1
_chemical_formula_structural   Zn2H8C15O7
_chemical_formula_sum   'Zn32 H128 C240 O112'
_cell_volume   8084.85200904
_cell_formula_units_Z   16
loop_
 _symmetry_equiv_pos_site_id
 _symmetry_equiv_pos_as_xyz
  1  'x, y, z'
loop_
 _atom_site_type_symbol
 _atom_site_label
 _atom_site_symmetry_multiplicity
 _atom_site_fract_x
 _atom_site_fract_y
 _atom_site_fract_z
 _atom_site_occupancy
 _atom_site_charge
  Zn  Zn1  1  0.138040  0.090210  0.703670  1.0  1.0366
  Zn  Zn2  1  0.375790  0.387830  0.600420  1.0  1.0308
  Zn  Zn3  1  0.590210  0.638040  0.796330  1.0  1.0322
  Zn  Zn4  1  0.887830  0.624210  0.399580  1.0  1.0281
  Zn  Zn5  1  0.887830  0.875790  0.899580  1.0  1.0281
  Zn  Zn6  1  0.361960  0.090210  0.203670  1.0  1.0368
  Zn  Zn7  1  0.138040  0.409790  0.203670  1.0  1.0369
  Zn  Zn8  1  0.638040  0.590210  0.296330  1.0  1.0371
  Zn  Zn9  1  0.090210  0.138040  0.203670  1.0  1.0334
  Zn  Zn10  1  0.612170  0.875790  0.399580  1.0  1.0274
  Zn  Zn11  1  0.612170  0.624210  0.899580  1.0  1.0274
  Zn  Zn12  1  0.124210  0.387830  0.100420  1.0  1.0305
  Zn  Zn13  1  0.409790  0.138040  0.703670  1.0  1.0314
  Zn  Zn14  1  0.624210  0.887830  0.899580  1.0  1.0306
  Zn  Zn15  1  0.875790  0.612170  0.899580  1.0  1.0309
  Zn  Zn16  1  0.112170  0.124210  0.100420  1.0  1.0274
  Zn  Zn17  1  0.361960  0.409790  0.703670  1.0  1.0359
  Zn  Zn18  1  0.861960  0.909790  0.296330  1.0  1.0359
  Zn  Zn19  1  0.387830  0.375790  0.100420  1.0  1.028
  Zn  Zn20  1  0.861960  0.590210  0.796330  1.0  1.0353
  Zn  Zn21  1  0.387830  0.124210  0.600420  1.0  1.028
  Zn  Zn22  1  0.590210  0.861960  0.296330  1.0  1.0331
  Zn  Zn23  1  0.090210  0.361960  0.703670  1.0  1.0321
  Zn  Zn24  1  0.375790  0.112170  0.100420  1.0  1.0309
  Zn  Zn25  1  0.909790  0.638040  0.296330  1.0  1.0313
  Zn  Zn26  1  0.112170  0.375790  0.600420  1.0  1.0274
  Zn  Zn27  1  0.409790  0.361960  0.203670  1.0  1.0324
  Zn  Zn28  1  0.624210  0.612170  0.399580  1.0  1.0307
  Zn  Zn29  1  0.875790  0.887830  0.399580  1.0  1.0308
  Zn  Zn30  1  0.124210  0.112170  0.600420  1.0  1.0307
  Zn  Zn31  1  0.638040  0.909790  0.796330  1.0  1.0357
  Zn  Zn32  1  0.909790  0.861960  0.796330  1.0  1.0323
  H  H33  1  0.140000  0.228500  0.150500  1.0  0.4361
  H  H34  1  0.939600  0.690900  0.156400  1.0  0.1038
  H  H35  1  0.482200  0.885500  0.589100  1.0  0.1089
  H  H36  1  0.817900  0.942300  0.533100  1.0  0.1054
  H  H37  1  0.892800  0.502800  0.472000  1.0  0.114
  H  H38  1  0.598800  0.986500  0.218900  1.0  0.11
  H  H39  1  0.114500  0.982200  0.410900  1.0  0.1087
  H  H40  1  0.448900  0.962900  0.462000  1.0  0.105
  H  H41  1  0.124600  0.520500  0.397700  1.0  0.1141
  H  H42  1  0.901200  0.513500  0.218900  1.0  0.1099
  H  H43  1  0.479500  0.875400  0.102300  1.0  0.1156
  H  H44  1  0.502800  0.607200  0.472000  1.0  0.1143
  H  H45  1  0.013500  0.098800  0.781100  1.0  0.1104
  H  H46  1  0.098800  0.486500  0.781100  1.0  0.1102
  H  H47  1  0.051100  0.962900  0.962000  1.0  0.1049
  H  H48  1  0.513500  0.901200  0.718900  1.0  0.1106
  H  H49  1  0.513500  0.598800  0.218900  1.0  0.1102
  H  H50  1  0.771500  0.860000  0.349500  1.0  0.4379
  H  H51  1  0.309100  0.439600  0.843600  1.0  0.104
  H  H52  1  0.442300  0.182100  0.466900  1.0  0.1053
  H  H53  1  0.939600  0.809100  0.656400  1.0  0.1039
  H  H54  1  0.317900  0.442300  0.466900  1.0  0.1052
  H  H55  1  0.479500  0.624600  0.602300  1.0  0.1153
  H  H56  1  0.948900  0.037100  0.038000  1.0  0.1044
  H  H57  1  0.982200  0.114500  0.910900  1.0  0.1088
  H  H58  1  0.037100  0.551100  0.038000  1.0  0.1061
  H  H59  1  0.607200  0.502800  0.972000  1.0  0.114
  H  H60  1  0.962900  0.051100  0.462000  1.0  0.106
  H  H61  1  0.860000  0.728500  0.349500  1.0  0.4364
  H  H62  1  0.462900  0.551100  0.538000  1.0  0.1058
  H  H63  1  0.182100  0.057700  0.466900  1.0  0.1055
  H  H64  1  0.817900  0.557700  0.033100  1.0  0.1053
  H  H65  1  0.598800  0.513500  0.718900  1.0  0.1101
  H  H66  1  0.360000  0.271500  0.150500  1.0  0.4364
  H  H67  1  0.020500  0.875400  0.602300  1.0  0.1152
  H  H68  1  0.885500  0.017800  0.589100  1.0  0.1088
  H  H69  1  0.002800  0.107200  0.528000  1.0  0.1147
  H  H70  1  0.557700  0.817900  0.533100  1.0  0.1053
  H  H71  1  0.537100  0.448900  0.462000  1.0  0.1055
  H  H72  1  0.439600  0.190900  0.843600  1.0  0.1046
  H  H73  1  0.809100  0.560400  0.656400  1.0  0.1042
  H  H74  1  0.979500  0.375400  0.897700  1.0  0.1149
  H  H75  1  0.140000  0.271500  0.650500  1.0  0.4367
  H  H76  1  0.107200  0.002800  0.028000  1.0  0.1146
  H  H77  1  0.607200  0.997200  0.472000  1.0  0.1142
  H  H78  1  0.228500  0.140000  0.650500  1.0  0.4365
  H  H79  1  0.271500  0.360000  0.650500  1.0  0.4379
  H  H80  1  0.682100  0.557700  0.533100  1.0  0.1057
  H  H81  1  0.624600  0.479500  0.102300  1.0  0.1148
  H  H82  1  0.017800  0.885500  0.089100  1.0  0.1086
  H  H83  1  0.385500  0.982200  0.910900  1.0  0.1084
  H  H84  1  0.551100  0.462900  0.038000  1.0  0.1047
  H  H85  1  0.997200  0.607200  0.972000  1.0  0.1141
  H  H86  1  0.497200  0.392800  0.528000  1.0  0.1144
  H  H87  1  0.002800  0.392800  0.028000  1.0  0.1147
  H  H88  1  0.057700  0.317900  0.466900  1.0  0.1052
  H  H89  1  0.520500  0.124600  0.897700  1.0  0.1151
  H  H90  1  0.997200  0.892800  0.472000  1.0  0.1139
  H  H91  1  0.942300  0.817900  0.033100  1.0  0.1054
  H  H92  1  0.502800  0.892800  0.972000  1.0  0.114
  H  H93  1  0.979500  0.124600  0.397700  1.0  0.1154
  H  H94  1  0.190900  0.060400  0.843600  1.0  0.1028
  H  H95  1  0.560400  0.809100  0.156400  1.0  0.1032
  H  H96  1  0.771500  0.640000  0.849500  1.0  0.437
  H  H97  1  0.497200  0.107200  0.028000  1.0  0.1143
  H  H98  1  0.962900  0.448900  0.962000  1.0  0.1057
  H  H99  1  0.309100  0.060400  0.343600  1.0  0.1038
  H  H100  1  0.942300  0.682100  0.533100  1.0  0.1052
  H  H101  1  0.551100  0.037100  0.538000  1.0  0.1048
  H  H102  1  0.098800  0.013500  0.281100  1.0  0.1102
  H  H103  1  0.182100  0.442300  0.966900  1.0  0.1054
  H  H104  1  0.640000  0.771500  0.349500  1.0  0.4371
  H  H105  1  0.360000  0.228500  0.650500  1.0  0.4363
  H  H106  1  0.557700  0.682100  0.033100  1.0  0.1053
  H  H107  1  0.401200  0.013500  0.781100  1.0  0.1101
  H  H108  1  0.462900  0.948900  0.038000  1.0  0.1056
  H  H109  1  0.375400  0.979500  0.397700  1.0  0.1152
  H  H110  1  0.013500  0.401200  0.281100  1.0  0.1103
  H  H111  1  0.271500  0.140000  0.150500  1.0  0.4369
  H  H112  1  0.982200  0.385500  0.410900  1.0  0.1088
  H  H113  1  0.517800  0.114500  0.410900  1.0  0.1082
  H  H114  1  0.728500  0.640000  0.349500  1.0  0.4366
  H  H115  1  0.690900  0.939600  0.656400  1.0  0.1039
  H  H116  1  0.901200  0.986500  0.718900  1.0  0.11
  H  H117  1  0.439600  0.309100  0.343600  1.0  0.1039
  H  H118  1  0.860000  0.771500  0.849500  1.0  0.4367
  H  H119  1  0.986500  0.901200  0.218900  1.0  0.1098
  H  H120  1  0.375400  0.520500  0.897700  1.0  0.1152
  H  H121  1  0.060400  0.309100  0.843600  1.0  0.1034
  H  H122  1  0.875400  0.020500  0.102300  1.0  0.1152
  H  H123  1  0.107200  0.497200  0.528000  1.0  0.1144
  H  H124  1  0.392800  0.497200  0.028000  1.0  0.1145
  H  H125  1  0.114500  0.517800  0.910900  1.0  0.109
  H  H126  1  0.986500  0.598800  0.718900  1.0  0.1096
  H  H127  1  0.037100  0.948900  0.538000  1.0  0.1053
  H  H128  1  0.809100  0.939600  0.156400  1.0  0.104
  H  H129  1  0.875400  0.479500  0.602300  1.0  0.1149
  H  H130  1  0.017800  0.614500  0.589100  1.0  0.1086
  H  H131  1  0.640000  0.728500  0.849500  1.0  0.4363
  H  H132  1  0.228500  0.360000  0.150500  1.0  0.4372
  H  H133  1  0.057700  0.182100  0.966900  1.0  0.1052
  H  H134  1  0.392800  0.002800  0.528000  1.0  0.1149
  H  H135  1  0.517800  0.385500  0.910900  1.0  0.1086
  H  H136  1  0.060400  0.190900  0.343600  1.0  0.1033
  H  H137  1  0.682100  0.942300  0.033100  1.0  0.1054
  H  H138  1  0.020500  0.624600  0.102300  1.0  0.115
  H  H139  1  0.385500  0.517800  0.410900  1.0  0.1084
  H  H140  1  0.728500  0.860000  0.849500  1.0  0.4373
  H  H141  1  0.885500  0.482200  0.089100  1.0  0.1087
  H  H142  1  0.448900  0.537100  0.962000  1.0  0.1046
  H  H143  1  0.624600  0.020500  0.602300  1.0  0.1145
  H  H144  1  0.486500  0.401200  0.781100  1.0  0.1104
  H  H145  1  0.190900  0.439600  0.343600  1.0  0.104
  H  H146  1  0.560400  0.690900  0.656400  1.0  0.1034
  H  H147  1  0.317900  0.057700  0.966900  1.0  0.1051
  H  H148  1  0.442300  0.317900  0.966900  1.0  0.1055
  H  H149  1  0.614500  0.017800  0.089100  1.0  0.1093
  H  H150  1  0.401200  0.486500  0.281100  1.0  0.1105
  H  H151  1  0.892800  0.997200  0.972000  1.0  0.1139
  H  H152  1  0.482200  0.614500  0.089100  1.0  0.1087
  H  H153  1  0.948900  0.462900  0.538000  1.0  0.1048
  H  H154  1  0.537100  0.051100  0.962000  1.0  0.1064
  H  H155  1  0.614500  0.482200  0.589100  1.0  0.1091
  H  H156  1  0.124600  0.979500  0.897700  1.0  0.1143
  H  H157  1  0.520500  0.375400  0.397700  1.0  0.1152
  H  H158  1  0.486500  0.098800  0.281100  1.0  0.1099
  H  H159  1  0.690900  0.560400  0.156400  1.0  0.1026
  H  H160  1  0.051100  0.537100  0.462000  1.0  0.105
  C  C161  1  0.628900  0.983000  0.193100  1.0  -0.0156
  C  C162  1  0.592100  0.006600  0.153600  1.0  -0.1927
  C  C163  1  0.002800  0.638700  0.615500  1.0  -0.0318
  C  C164  1  0.455000  0.254100  0.344600  1.0  -0.0774
  C  C165  1  0.038500  0.264100  0.465700  1.0  -0.0636
  C  C166  1  0.361700  0.005400  0.502500  1.0  -0.0099
  C  C167  1  0.997200  0.138700  0.884500  1.0  -0.0318
  C  C168  1  0.455200  0.207400  0.305600  1.0  -0.1226
  C  C169  1  0.066400  0.248400  0.763600  1.0  0.7015
  C  C170  1  0.219400  0.477500  0.884400  1.0  0.0018
  C  C171  1  0.207400  0.044800  0.305600  1.0  -0.1244
  C  C172  1  0.149400  0.508400  0.424300  1.0  -0.0835
  C  C173  1  0.038500  0.235900  0.965700  1.0  -0.0642
  C  C174  1  0.219800  0.031600  0.003800  1.0  -0.1466
  C  C175  1  0.748400  0.933600  0.236400  1.0  0.7001
  C  C176  1  0.955000  0.754100  0.655400  1.0  -0.0775
  C  C177  1  0.022500  0.219400  0.884400  1.0  0.0019
  C  C178  1  0.522500  0.719400  0.115600  1.0  0.0022
  C  C179  1  0.460500  0.507500  0.153900  1.0  0.7328
  C  C180  1  0.104400  0.516600  0.463000  1.0  -0.0779
  C  C181  1  0.505400  0.861700  0.997500  1.0  -0.0089
  C  C182  1  0.039500  0.992500  0.153900  1.0  0.7335
  C  C183  1  0.092100  0.993400  0.346400  1.0  -0.1934
  C  C184  1  0.994600  0.861700  0.497500  1.0  -0.0092
  C  C185  1  0.933600  0.751600  0.236400  1.0  0.7013
  C  C186  1  0.507500  0.039500  0.153900  1.0  0.7325
  C  C187  1  0.442800  0.256700  0.046300  1.0  0.7119
  C  C188  1  0.138300  0.005400  0.002500  1.0  -0.0092
  C  C189  1  0.494600  0.138300  0.002500  1.0  -0.0128
  C  C190  1  0.361300  0.997200  0.884500  1.0  -0.0335
  C  C191  1  0.066400  0.251600  0.263600  1.0  0.7014
  C  C192  1  0.254100  0.045000  0.344600  1.0  -0.075
  C  C193  1  0.007500  0.539500  0.846100  1.0  0.7324
  C  C194  1  0.016600  0.895600  0.537000  1.0  -0.0781
  C  C195  1  0.991600  0.350600  0.924300  1.0  -0.087
  C  C196  1  0.754100  0.955000  0.155400  1.0  -0.0746
  C  C197  1  0.756700  0.557200  0.953700  1.0  0.7112
  C  C198  1  0.730300  0.982400  0.574700  1.0  0.0857
  C  C199  1  0.243300  0.442800  0.046300  1.0  0.71
  C  C200  1  0.138300  0.494600  0.502500  1.0  -0.009
  C  C201  1  0.254100  0.455000  0.844600  1.0  -0.0746
  C  C202  1  0.545000  0.754100  0.155400  1.0  -0.0776
  C  C203  1  0.508400  0.149400  0.924300  1.0  -0.0845
  C  C204  1  0.006600  0.592100  0.653600  1.0  -0.1935
  C  C205  1  0.057200  0.256700  0.546300  1.0  0.7099
  C  C206  1  0.433600  0.251600  0.763600  1.0  0.702
  C  C207  1  0.983400  0.104400  0.463000  1.0  -0.0823
  C  C208  1  0.497200  0.638700  0.115500  1.0  -0.033
  C  C209  1  0.230300  0.482400  0.425300  1.0  0.0862
  C  C210  1  0.942800  0.743300  0.453700  1.0  0.7105
  C  C211  1  0.522500  0.780600  0.615600  1.0  0.0021
  C  C212  1  0.280600  0.022500  0.884400  1.0  0.0007
  C  C213  1  0.361700  0.494600  0.002500  1.0  -0.0086
  C  C214  1  0.256700  0.057200  0.046300  1.0  0.7109
  C  C215  1  0.861300  0.002800  0.615500  1.0  -0.0364
  C  C216  1  0.045000  0.245900  0.344600  1.0  -0.0749
  C  C217  1  0.219400  0.022500  0.384400  1.0  0.0019
  C  C218  1  0.292600  0.455200  0.305600  1.0  -0.1228
  C  C219  1  0.745900  0.955000  0.655400  1.0  -0.0766
  C  C220  1  0.251600  0.433600  0.263600  1.0  0.7008
  C  C221  1  0.506600  0.092100  0.346400  1.0  -0.193
  C  C222  1  0.482400  0.230300  0.925300  1.0  0.0828
  C  C223  1  0.492500  0.960500  0.846100  1.0  0.7319
  C  C224  1  0.538500  0.764100  0.534300  1.0  -0.0639
  C  C225  1  0.395600  0.516600  0.963000  1.0  -0.0782
  C  C226  1  0.968400  0.780200  0.496200  1.0  -0.1453
  C  C227  1  0.264100  0.461500  0.465700  1.0  -0.0634
  C  C228  1  0.649400  0.008400  0.575700  1.0  -0.0831
  C  C229  1  0.022500  0.280600  0.384400  1.0  0.0018
  C  C230  1  0.407900  0.993400  0.846400  1.0  -0.1933
  C  C231  1  0.483400  0.604400  0.537000  1.0  -0.0782
  C  C232  1  0.008400  0.649400  0.075700  1.0  -0.0847
  C  C233  1  0.031600  0.219800  0.503800  1.0  -0.1494
  C  C234  1  0.128900  0.483000  0.806900  1.0  -0.0139
  C  C235  1  0.743300  0.557200  0.453700  1.0  0.7114
  C  C236  1  0.566400  0.748400  0.236400  1.0  0.7005
  C  C237  1  0.017000  0.128900  0.806900  1.0  -0.0135
  C  C238  1  0.243300  0.057200  0.546300  1.0  0.7103
  C  C239  1  0.955200  0.792600  0.194400  1.0  -0.1223
  C  C240  1  0.961500  0.764100  0.034300  1.0  -0.0627
  C  C241  1  0.491600  0.850600  0.075700  1.0  -0.0861
  C  C242  1  0.491600  0.649400  0.575700  1.0  -0.0859
  C  C243  1  0.592100  0.493400  0.653600  1.0  -0.1934
  C  C244  1  0.960500  0.007500  0.846100  1.0  0.7323
  C  C245  1  0.256700  0.442800  0.546300  1.0  0.7107
  C  C246  1  0.992500  0.460500  0.153900  1.0  0.7326
  C  C247  1  0.128900  0.017000  0.306900  1.0  -0.0139
  C  C248  1  0.907900  0.006600  0.653600  1.0  -0.1932
  C  C249  1  0.539500  0.492500  0.846100  1.0  0.7331
  C  C250  1  0.961500  0.735900  0.534300  1.0  -0.063
  C  C251  1  0.850600  0.008400  0.075700  1.0  -0.0848
  C  C252  1  0.016600  0.604400  0.037000  1.0  -0.0789
  C  C253  1  0.057200  0.243300  0.046300  1.0  0.7105
  C  C254  1  0.292600  0.044800  0.805600  1.0  -0.123
  C  C255  1  0.461500  0.235900  0.465700  1.0  -0.0631
  C  C256  1  0.482400  0.269700  0.425300  1.0  0.083
  C  C257  1  0.138700  0.997200  0.384500  1.0  -0.0329
  C  C258  1  0.992500  0.039500  0.653900  1.0  0.7323
  C  C259  1  0.997200  0.361300  0.384500  1.0  -0.0326
  C  C260  1  0.850600  0.491600  0.575700  1.0  -0.0839
  C  C261  1  0.531600  0.719800  0.496200  1.0  -0.1475
  C  C262  1  0.044800  0.207400  0.805600  1.0  -0.1216
  C  C263  1  0.248400  0.433600  0.763600  1.0  0.7006
  C  C264  1  0.460500  0.992500  0.653900  1.0  0.7328
  C  C265  1  0.638700  0.497200  0.615500  1.0  -0.034
  C  C266  1  0.977500  0.719400  0.615600  1.0  0.0026
  C  C267  1  0.566400  0.751600  0.736400  1.0  0.7006
  C  C268  1  0.433600  0.248400  0.263600  1.0  0.7016
  C  C269  1  0.780600  0.522500  0.115600  1.0  0.0009
  C  C270  1  0.977500  0.780600  0.115600  1.0  0.0027
  C  C271  1  0.442800  0.243300  0.546300  1.0  0.7106
  C  C272  1  0.477500  0.280600  0.884400  1.0  0.0026
  C  C273  1  0.230300  0.017600  0.925300  1.0  0.0864
  C  C274  1  0.982400  0.730300  0.074700  1.0  0.0824
  C  C275  1  0.730300  0.517600  0.074700  1.0  0.0859
  C  C276  1  0.493400  0.592100  0.153600  1.0  -0.1922
  C  C277  1  0.492500  0.539500  0.346100  1.0  0.7318
  C  C278  1  0.993400  0.407900  0.346400  1.0  -0.1918
  C  C279  1  0.764100  0.538500  0.034300  1.0  -0.0634
  C  C280  1  0.455200  0.292600  0.805600  1.0  -0.1239
  C  C281  1  0.104400  0.983400  0.963000  1.0  -0.0829
  C  C282  1  0.483000  0.371100  0.806900  1.0  -0.0126
  C  C283  1  0.544800  0.792600  0.694400  1.0  -0.1211
  C  C284  1  0.960500  0.492500  0.346100  1.0  0.7325
  C  C285  1  0.006600  0.907900  0.153600  1.0  -0.1937
  C  C286  1  0.871100  0.517000  0.193100  1.0  -0.0144
  C  C287  1  0.604400  0.483400  0.037000  1.0  -0.079
  C  C288  1  0.557200  0.743300  0.953700  1.0  0.7096
  C  C289  1  0.719400  0.977500  0.115600  1.0  0.0019
  C  C290  1  0.516600  0.395600  0.463000  1.0  -0.0792
  C  C291  1  0.371100  0.483000  0.306900  1.0  -0.0133
  C  C292  1  0.861700  0.994600  0.997500  1.0  -0.0082
  C  C293  1  0.461500  0.264100  0.965700  1.0  -0.0625
  C  C294  1  0.743300  0.942800  0.953700  1.0  0.7102
  C  C295  1  0.044800  0.292600  0.305600  1.0  -0.1226
  C  C296  1  0.942800  0.756700  0.953700  1.0  0.7111
  C  C297  1  0.468400  0.280200  0.503800  1.0  -0.1498
  C  C298  1  0.895600  0.483400  0.537000  1.0  -0.0799
  C  C299  1  0.002800  0.861300  0.115500  1.0  -0.0327
  C  C300  1  0.968400  0.719800  0.996200  1.0  -0.1469
  C  C301  1  0.861700  0.505400  0.497500  1.0  -0.0095
  C  C302  1  0.993400  0.092100  0.846400  1.0  -0.1924
  C  C303  1  0.994600  0.638300  0.997500  1.0  -0.0089
  C  C304  1  0.219800  0.468400  0.503800  1.0  -0.1486
  C  C305  1  0.502800  0.138700  0.384500  1.0  -0.0309
  C  C306  1  0.269700  0.017600  0.425300  1.0  0.0858
  C  C307  1  0.769700  0.982400  0.074700  1.0  0.0852
  C  C308  1  0.769700  0.517600  0.574700  1.0  0.0853
  C  C309  1  0.045000  0.254100  0.844600  1.0  -0.078
  C  C310  1  0.005400  0.361700  0.002500  1.0  -0.0119
  C  C311  1  0.507500  0.460500  0.653900  1.0  0.7328
  C  C312  1  0.517000  0.628900  0.193100  1.0  -0.015
  C  C313  1  0.008400  0.850600  0.575700  1.0  -0.0845
  C  C314  1  0.955200  0.707400  0.694400  1.0  -0.1219
  C  C315  1  0.468400  0.219800  0.003800  1.0  -0.1488
  C  C316  1  0.477500  0.219400  0.384400  1.0  0.0026
  C  C317  1  0.531600  0.780200  0.996200  1.0  -0.1482
  C  C318  1  0.235900  0.461500  0.965700  1.0  -0.0632
  C  C319  1  0.005400  0.138300  0.502500  1.0  -0.0107
  C  C320  1  0.907900  0.493400  0.153600  1.0  -0.1933
  C  C321  1  0.719800  0.968400  0.496200  1.0  -0.1465
  C  C322  1  0.280600  0.477500  0.384400  1.0  0.0009
  C  C323  1  0.751600  0.933600  0.736400  1.0  0.6988
  C  C324  1  0.871100  0.983000  0.693100  1.0  -0.0144
  C  C325  1  0.017600  0.230300  0.425300  1.0  0.0824
  C  C326  1  0.483400  0.895600  0.037000  1.0  -0.0792
  C  C327  1  0.245900  0.455000  0.344600  1.0  -0.0766
  C  C328  1  0.017600  0.269700  0.925300  1.0  0.0824
  C  C329  1  0.604400  0.016600  0.537000  1.0  -0.0779
  C  C330  1  0.745900  0.545000  0.155400  1.0  -0.0775
  C  C331  1  0.407900  0.506600  0.346400  1.0  -0.1929
  C  C332  1  0.638300  0.505400  0.997500  1.0  -0.0091
  C  C333  1  0.557200  0.756700  0.453700  1.0  0.7102
  C  C334  1  0.235900  0.038500  0.465700  1.0  -0.0632
  C  C335  1  0.517000  0.871100  0.693100  1.0  -0.0145
  C  C336  1  0.982400  0.769700  0.574700  1.0  0.0825
  C  C337  1  0.780200  0.968400  0.996200  1.0  -0.1448
  C  C338  1  0.638700  0.002800  0.115500  1.0  -0.0357
  C  C339  1  0.649400  0.491600  0.075700  1.0  -0.0826
  C  C340  1  0.350600  0.508400  0.924300  1.0  -0.0852
  C  C341  1  0.792600  0.955200  0.694400  1.0  -0.1216
  C  C342  1  0.516600  0.104400  0.963000  1.0  -0.0787
  C  C343  1  0.031600  0.280200  0.003800  1.0  -0.1492
  C  C344  1  0.502800  0.361300  0.884500  1.0  -0.0316
  C  C345  1  0.371100  0.017000  0.806900  1.0  -0.0134
  C  C346  1  0.138700  0.502800  0.884500  1.0  -0.0343
  C  C347  1  0.280200  0.468400  0.003800  1.0  -0.1487
  C  C348  1  0.735900  0.538500  0.534300  1.0  -0.0634
  C  C349  1  0.517600  0.730300  0.574700  1.0  0.0818
  C  C350  1  0.544800  0.707400  0.194400  1.0  -0.121
  C  C351  1  0.707400  0.955200  0.194400  1.0  -0.1234
  C  C352  1  0.983000  0.628900  0.693100  1.0  -0.0135
  C  C353  1  0.494600  0.361700  0.502500  1.0  -0.0101
  C  C354  1  0.505400  0.638300  0.497500  1.0  -0.0088
  C  C355  1  0.264100  0.038500  0.965700  1.0  -0.0631
  C  C356  1  0.092100  0.506600  0.846400  1.0  -0.1924
  C  C357  1  0.792600  0.544800  0.194400  1.0  -0.1225
  C  C358  1  0.361300  0.502800  0.384500  1.0  -0.0348
  C  C359  1  0.719800  0.531600  0.996200  1.0  -0.1485
  C  C360  1  0.207400  0.455200  0.805600  1.0  -0.1244
  C  C361  1  0.269700  0.482400  0.925300  1.0  0.0857
  C  C362  1  0.545000  0.745900  0.655400  1.0  -0.0749
  C  C363  1  0.506600  0.407900  0.846400  1.0  -0.1929
  C  C364  1  0.493400  0.907900  0.653600  1.0  -0.1919
  C  C365  1  0.538500  0.735900  0.034300  1.0  -0.0642
  C  C366  1  0.707400  0.544800  0.694400  1.0  -0.124
  C  C367  1  0.983000  0.871100  0.193100  1.0  -0.0133
  C  C368  1  0.455000  0.245900  0.844600  1.0  -0.0753
  C  C369  1  0.933600  0.748400  0.736400  1.0  0.7013
  C  C370  1  0.280200  0.031600  0.503800  1.0  -0.1492
  C  C371  1  0.719400  0.522500  0.615600  1.0  0.0018
  C  C372  1  0.395600  0.983400  0.463000  1.0  -0.0837
  C  C373  1  0.754100  0.545000  0.655400  1.0  -0.075
  C  C374  1  0.245900  0.045000  0.844600  1.0  -0.0774
  C  C375  1  0.483000  0.128900  0.306900  1.0  -0.0125
  C  C376  1  0.780600  0.977500  0.615600  1.0  0.0012
  C  C377  1  0.539500  0.007500  0.346100  1.0  0.7331
  C  C378  1  0.895600  0.016600  0.037000  1.0  -0.0786
  C  C379  1  0.508400  0.350600  0.424300  1.0  -0.0849
  C  C380  1  0.007500  0.960500  0.346100  1.0  0.7326
  C  C381  1  0.350600  0.991600  0.424300  1.0  -0.0853
  C  C382  1  0.861300  0.497200  0.115500  1.0  -0.0343
  C  C383  1  0.638300  0.994600  0.497500  1.0  -0.0078
  C  C384  1  0.764100  0.961500  0.534300  1.0  -0.0635
  C  C385  1  0.149400  0.991600  0.924300  1.0  -0.0836
  C  C386  1  0.248400  0.066400  0.263600  1.0  0.7005
  C  C387  1  0.628900  0.517000  0.693100  1.0  -0.0154
  C  C388  1  0.991600  0.149400  0.424300  1.0  -0.0864
  C  C389  1  0.780200  0.531600  0.496200  1.0  -0.1469
  C  C390  1  0.756700  0.942800  0.453700  1.0  0.7107
  C  C391  1  0.983400  0.395600  0.963000  1.0  -0.0788
  C  C392  1  0.751600  0.566400  0.236400  1.0  0.6997
  C  C393  1  0.517600  0.769700  0.074700  1.0  0.0819
  C  C394  1  0.039500  0.507500  0.653900  1.0  0.7337
  C  C395  1  0.735900  0.961500  0.034300  1.0  -0.0632
  C  C396  1  0.955000  0.745900  0.155400  1.0  -0.0755
  C  C397  1  0.251600  0.066400  0.763600  1.0  0.7007
  C  C398  1  0.497200  0.861300  0.615500  1.0  -0.0336
  C  C399  1  0.017000  0.371100  0.306900  1.0  -0.0131
  C  C400  1  0.748400  0.566400  0.736400  1.0  0.7
  O  O401  1  0.589200  0.708200  0.268900  1.0  -0.676
  O  O402  1  0.573000  0.785300  0.921100  1.0  -0.6798
  O  O403  1  0.410800  0.291800  0.731100  1.0  -0.6716
  O  O404  1  0.147900  0.322900  0.652920  1.0  -0.9255
  O  O405  1  0.941200  0.674000  0.237550  1.0  -0.5861
  O  O406  1  0.438700  0.165900  0.547520  1.0  -0.6153
  O  O407  1  0.177100  0.147900  0.652920  1.0  -0.9239
  O  O408  1  0.555100  0.523600  0.809640  1.0  -0.5881
  O  O409  1  0.674000  0.558800  0.237550  1.0  -0.5818
  O  O410  1  0.089200  0.208200  0.731100  1.0  -0.6744
  O  O411  1  0.938700  0.665900  0.452480  1.0  -0.6145
  O  O412  1  0.285300  0.073000  0.578900  1.0  -0.6846
  O  O413  1  0.058800  0.326000  0.762450  1.0  -0.586
  O  O414  1  0.558800  0.674000  0.737550  1.0  -0.5855
  O  O415  1  0.441200  0.174000  0.762450  1.0  -0.5854
  O  O416  1  0.973200  0.950200  0.383030  1.0  -0.6064
  O  O417  1  0.476400  0.055100  0.190360  1.0  -0.5878
  O  O418  1  0.334100  0.061300  0.047520  1.0  -0.6148
  O  O419  1  0.950200  0.973200  0.883030  1.0  -0.6071
  O  O420  1  0.165900  0.061300  0.547520  1.0  -0.613
  O  O421  1  0.055100  0.023600  0.190360  1.0  -0.5872
  O  O422  1  0.665900  0.561300  0.452480  1.0  -0.6122
  O  O423  1  0.023600  0.444900  0.190360  1.0  -0.5863
  O  O424  1  0.555100  0.976400  0.309640  1.0  -0.5879
  O  O425  1  0.523600  0.555100  0.309640  1.0  -0.5865
  O  O426  1  0.826000  0.941200  0.237550  1.0  -0.5814
  O  O427  1  0.549800  0.526800  0.883030  1.0  -0.6067
  O  O428  1  0.023600  0.055100  0.690360  1.0  -0.5866
  O  O429  1  0.352100  0.177100  0.652920  1.0  -0.9223
  O  O430  1  0.549800  0.973200  0.383030  1.0  -0.6062
  O  O431  1  0.589200  0.791800  0.768900  1.0  -0.6762
  O  O432  1  0.944900  0.976400  0.809640  1.0  -0.5886
  O  O433  1  0.973200  0.549800  0.883030  1.0  -0.6065
  O  O434  1  0.334100  0.438700  0.547520  1.0  -0.6137
  O  O435  1  0.473200  0.450200  0.616970  1.0  -0.6062
  O  O436  1  0.427000  0.285300  0.578900  1.0  -0.6803
  O  O437  1  0.058800  0.174000  0.262450  1.0  -0.5845
  O  O438  1  0.561300  0.834100  0.452480  1.0  -0.6164
  O  O439  1  0.785300  0.573000  0.421100  1.0  -0.6833
  O  O440  1  0.049800  0.026800  0.116970  1.0  -0.6061
  O  O441  1  0.558800  0.826000  0.237550  1.0  -0.5872
  O  O442  1  0.285300  0.427000  0.078900  1.0  -0.6843
  O  O443  1  0.822900  0.852100  0.347080  1.0  -0.9228
  O  O444  1  0.647900  0.822900  0.347080  1.0  -0.9256
  O  O445  1  0.291800  0.410800  0.231100  1.0  -0.6701
  O  O446  1  0.441200  0.326000  0.262450  1.0  -0.5839
  O  O447  1  0.708200  0.910800  0.268900  1.0  -0.6711
  O  O448  1  0.714700  0.573000  0.921100  1.0  -0.6818
  O  O449  1  0.826000  0.558800  0.737550  1.0  -0.5817
  O  O450  1  0.061300  0.334100  0.547520  1.0  -0.6158
  O  O451  1  0.708200  0.589200  0.768900  1.0  -0.6708
  O  O452  1  0.322900  0.352100  0.652920  1.0  -0.9227
  O  O453  1  0.026800  0.450200  0.116970  1.0  -0.6059
  O  O454  1  0.473200  0.049800  0.116970  1.0  -0.6061
  O  O455  1  0.322900  0.147900  0.152920  1.0  -0.9236
  O  O456  1  0.834100  0.938700  0.452480  1.0  -0.6138
  O  O457  1  0.410800  0.208200  0.231100  1.0  -0.6716
  O  O458  1  0.061300  0.165900  0.047520  1.0  -0.6169
  O  O459  1  0.791800  0.910800  0.768900  1.0  -0.6722
  O  O460  1  0.910800  0.708200  0.768900  1.0  -0.6738
  O  O461  1  0.526800  0.549800  0.383030  1.0  -0.6061
  O  O462  1  0.326000  0.058800  0.262450  1.0  -0.5806
  O  O463  1  0.852100  0.822900  0.847080  1.0  -0.9234
  O  O464  1  0.852100  0.677100  0.347080  1.0  -0.9223
  O  O465  1  0.677100  0.647900  0.347080  1.0  -0.9238
  O  O466  1  0.208200  0.089200  0.231100  1.0  -0.669
  O  O467  1  0.976400  0.555100  0.809640  1.0  -0.5871
  O  O468  1  0.174000  0.441200  0.262450  1.0  -0.5802
  O  O469  1  0.444900  0.023600  0.690360  1.0  -0.5867
  O  O470  1  0.927000  0.785300  0.421100  1.0  -0.6788
  O  O471  1  0.647900  0.677100  0.847080  1.0  -0.9245
  O  O472  1  0.665900  0.938700  0.952480  1.0  -0.6117
  O  O473  1  0.214700  0.073000  0.078900  1.0  -0.6836
  O  O474  1  0.938700  0.834100  0.952480  1.0  -0.6142
  O  O475  1  0.049800  0.473200  0.616970  1.0  -0.6058
  O  O476  1  0.950200  0.526800  0.383030  1.0  -0.6077
  O  O477  1  0.438700  0.334100  0.047520  1.0  -0.6149
  O  O478  1  0.177100  0.352100  0.152920  1.0  -0.9237
  O  O479  1  0.944900  0.523600  0.309640  1.0  -0.5888
  O  O480  1  0.834100  0.561300  0.952480  1.0  -0.613
  O  O481  1  0.352100  0.322900  0.152920  1.0  -0.9239
  O  O482  1  0.026800  0.049800  0.616970  1.0  -0.6059
  O  O483  1  0.927000  0.714700  0.921100  1.0  -0.6792
  O  O484  1  0.714700  0.927000  0.421100  1.0  -0.6805
  O  O485  1  0.910800  0.791800  0.268900  1.0  -0.6734
  O  O486  1  0.326000  0.441200  0.762450  1.0  -0.5801
  O  O487  1  0.208200  0.410800  0.731100  1.0  -0.669
  O  O488  1  0.174000  0.058800  0.762450  1.0  -0.5807
  O  O489  1  0.055100  0.476400  0.690360  1.0  -0.5876
  O  O490  1  0.573000  0.714700  0.421100  1.0  -0.6802
  O  O491  1  0.677100  0.852100  0.847080  1.0  -0.9251
  O  O492  1  0.427000  0.214700  0.078900  1.0  -0.6814
  O  O493  1  0.561300  0.665900  0.952480  1.0  -0.6152
  O  O494  1  0.785300  0.927000  0.921100  1.0  -0.6823
  O  O495  1  0.073000  0.285300  0.078900  1.0  -0.6817
  O  O496  1  0.165900  0.438700  0.047520  1.0  -0.6124
  O  O497  1  0.450200  0.026800  0.616970  1.0  -0.6073
  O  O498  1  0.822900  0.647900  0.847080  1.0  -0.923
  O  O499  1  0.214700  0.427000  0.578900  1.0  -0.6831
  O  O500  1  0.073000  0.214700  0.578900  1.0  -0.6826
  O  O501  1  0.941200  0.826000  0.737550  1.0  -0.5849
  O  O502  1  0.674000  0.941200  0.737550  1.0  -0.5812
  O  O503  1  0.089200  0.291800  0.231100  1.0  -0.6743
  O  O504  1  0.791800  0.589200  0.268900  1.0  -0.6715
  O  O505  1  0.450200  0.473200  0.116970  1.0  -0.607
  O  O506  1  0.444900  0.476400  0.190360  1.0  -0.5869
  O  O507  1  0.291800  0.089200  0.731100  1.0  -0.6699
  O  O508  1  0.476400  0.444900  0.690360  1.0  -0.5865
  O  O509  1  0.147900  0.177100  0.152920  1.0  -0.9238
  O  O510  1  0.526800  0.950200  0.883030  1.0  -0.606
  O  O511  1  0.976400  0.944900  0.309640  1.0  -0.5881
  O  O512  1  0.523600  0.944900  0.809640  1.0  -0.5866
