# generated using pymatgen
data_ZnH5C11O4
_symmetry_space_group_name_H-M   'P 1'
_cell_length_a   24.48780000
_cell_length_b   24.48780000
_cell_length_c   24.48780000
_cell_angle_alpha   62.35980000
_cell_angle_beta   85.86170000
_cell_angle_gamma   117.64000000
_symmetry_Int_Tables_number   1
_chemical_formula_structural   ZnH5C11O4
_chemical_formula_sum   'Zn16 H80 C176 O64'
_cell_volume   10723.40217008
_cell_formula_units_Z   16
loop_
 _symmetry_equiv_pos_site_id
 _symmetry_equiv_pos_as_xyz
  1  'x, y, z'
loop_
 _atom_site_type_symbol
 _atom_site_label
 _atom_site_symmetry_multiplicity
 _atom_site_fract_x
 _atom_site_fract_y
 _atom_site_fract_z
 _atom_site_occupancy
 _atom_site_charge
  Zn  Zn1  1  0.768880  0.466500  0.225760  1.0  1.0375
  Zn  Zn2  1  0.697620  0.005360  0.768880  1.0  1.0372
  Zn  Zn3  1  0.698500  0.579450  0.189330  1.0  0.8555
  Zn  Zn4  1  0.880950  0.112170  0.698500  1.0  0.8606
  Zn  Zn5  1  0.114880  0.905250  0.514090  1.0  1.1001
  Zn  Zn6  1  0.790370  0.371030  0.114880  1.0  1.0945
  Zn  Zn7  1  0.225760  0.994640  0.307740  1.0  1.0371
  Zn  Zn8  1  0.514090  0.628970  0.580660  1.0  1.0966
  Zn  Zn9  1  0.189330  0.887830  0.231220  1.0  0.8596
  Zn  Zn10  1  0.580660  0.094750  0.790370  1.0  1.0998
  Zn  Zn11  1  0.558110  0.030980  0.949790  1.0  1.0378
  Zn  Zn12  1  0.019230  0.969020  0.472870  1.0  1.0337
  Zn  Zn13  1  0.307740  0.533500  0.697620  1.0  1.0377
  Zn  Zn14  1  0.231220  0.420550  0.880950  1.0  0.852
  Zn  Zn15  1  0.472870  0.492100  0.558110  1.0  1.0366
  Zn  Zn16  1  0.949790  0.507900  0.019230  1.0  1.0333
  H  H17  1  0.146800  0.633600  0.027200  1.0  0.104
  H  H18  1  0.703300  0.704000  0.926900  1.0  0.1269
  H  H19  1  0.842700  0.743400  0.301900  1.0  0.1279
  H  H20  1  0.340400  0.908100  0.395900  1.0  0.1128
  H  H21  1  0.787000  0.284400  0.349800  1.0  0.1095
  H  H22  1  0.900900  0.793300  0.459200  1.0  0.1138
  H  H23  1  0.537600  0.423800  0.293600  1.0  0.1224
  H  H24  1  0.318100  0.662400  0.911900  1.0  0.1179
  H  H25  1  0.879300  0.566600  0.321500  1.0  0.113
  H  H26  1  0.219700  0.148100  0.498800  1.0  0.1156
  H  H27  1  0.260600  0.712300  0.997700  1.0  0.125
  H  H28  1  0.696000  0.091900  0.567700  1.0  0.1129
  H  H29  1  0.395900  0.736300  0.696000  1.0  0.1132
  H  H30  1  0.032600  0.828500  0.706300  1.0  0.1156
  H  H31  1  0.900700  0.855400  0.842700  1.0  0.1296
  H  H32  1  0.936000  0.398500  0.814500  1.0  0.115
  H  H33  1  0.165100  0.714600  0.838500  1.0  0.1103
  H  H34  1  0.420400  0.240100  0.783300  1.0  0.1169
  H  H35  1  0.976600  0.759900  0.819700  1.0  0.1175
  H  H36  1  0.997700  0.258300  0.290000  1.0  0.1254
  H  H37  1  0.795900  0.261100  0.032600  1.0  0.1161
  H  H38  1  0.838500  0.003600  0.446900  1.0  0.1116
  H  H39  1  0.349800  0.136800  0.365800  1.0  0.1086
  H  H40  1  0.000700  0.369800  0.703300  1.0  0.1247
  H  H41  1  0.027200  0.174000  0.339200  1.0  0.1025
  H  H42  1  0.911900  0.230000  0.425700  1.0  0.1191
  H  H43  1  0.907900  0.230100  0.756400  1.0  0.1123
  H  H44  1  0.567700  0.263700  0.340400  1.0  0.113
  H  H45  1  0.451700  0.741700  0.260600  1.0  0.1282
  H  H46  1  0.446900  0.285400  0.549500  1.0  0.1108
  H  H47  1  0.353100  0.851900  0.928400  1.0  0.1151
  H  H48  1  0.512500  0.913500  0.282600  1.0  0.1312
  H  H49  1  0.293600  0.831200  0.282600  1.0  0.1218
  H  H50  1  0.926900  0.630200  0.369100  1.0  0.1246
  H  H51  1  0.549500  0.996400  0.165100  1.0  0.1118
  H  H52  1  0.459200  0.360100  0.747500  1.0  0.1119
  H  H53  1  0.783300  0.203700  0.976600  1.0  0.1186
  H  H54  1  0.944800  0.456300  0.868100  1.0  0.1159
  H  H55  1  0.498800  0.718500  0.353100  1.0  0.1148
  H  H56  1  0.365800  0.715600  0.497400  1.0  0.1094
  H  H57  1  0.706300  0.738900  0.465200  1.0  0.1163
  H  H58  1  0.511500  0.187100  0.944800  1.0  0.1145
  H  H59  1  0.344300  0.770000  0.318100  1.0  0.1163
  H  H60  1  0.282600  0.795100  0.803900  1.0  0.1306
  H  H61  1  0.800900  0.684400  0.250900  1.0  0.1052
  H  H62  1  0.928400  0.281500  0.219700  1.0  0.1151
  H  H63  1  0.453700  0.171600  0.399100  1.0  0.1264
  H  H64  1  0.497400  0.863200  0.787000  1.0  0.1091
  H  H65  1  0.282600  0.576200  0.886200  1.0  0.1223
  H  H66  1  0.111900  0.433400  0.687300  1.0  0.1122
  H  H67  1  0.486800  0.826000  0.146800  1.0  0.1026
  H  H68  1  0.399100  0.852800  0.429300  1.0  0.1244
  H  H69  1  0.429300  0.828400  0.717900  1.0  0.1256
  H  H70  1  0.747500  0.206700  0.892400  1.0  0.1138
  H  H71  1  0.954700  0.256600  0.900700  1.0  0.1263
  H  H72  1  0.369100  0.296000  0.000700  1.0  0.1258
  H  H73  1  0.819700  0.796300  0.420400  1.0  0.116
  H  H74  1  0.814500  0.750500  0.787000  1.0  0.1164
  H  H75  1  0.803900  0.086500  0.401000  1.0  0.1328
  H  H76  1  0.462500  0.249500  0.936000  1.0  0.1116
  H  H77  1  0.883500  0.948200  0.800900  1.0  0.1065
  H  H78  1  0.401000  0.204900  0.512500  1.0  0.1321
  H  H79  1  0.322200  0.335700  0.907900  1.0  0.1132
  H  H80  1  0.868100  0.812900  0.675600  1.0  0.1155
  H  H81  1  0.064700  0.315600  0.883500  1.0  0.1051
  H  H82  1  0.687300  0.799200  0.879300  1.0  0.1132
  H  H83  1  0.290000  0.287700  0.451700  1.0  0.1294
  H  H84  1  0.675600  0.543700  0.511500  1.0  0.1155
  H  H85  1  0.013500  0.769900  0.322200  1.0  0.1126
  H  H86  1  0.425700  0.337600  0.344300  1.0  0.12
  H  H87  1  0.339200  0.366400  0.486800  1.0  0.1027
  H  H88  1  0.321500  0.200800  0.111900  1.0  0.1125
  H  H89  1  0.892400  0.639900  0.900900  1.0  0.1128
  H  H90  1  0.787000  0.601500  0.462500  1.0  0.1148
  H  H91  1  0.301900  0.144600  0.954700  1.0  0.1262
  H  H92  1  0.756400  0.664300  0.013500  1.0  0.1123
  H  H93  1  0.886200  0.168800  0.537600  1.0  0.1227
  H  H94  1  0.465200  0.171500  0.795900  1.0  0.114
  H  H95  1  0.250900  0.051800  0.064700  1.0  0.1062
  H  H96  1  0.717900  0.147200  0.453700  1.0  0.125
  C  C97  1  0.323200  0.139200  0.392400  1.0  -0.1294
  C  C98  1  0.477300  0.818600  0.283500  1.0  0.016
  C  C99  1  0.280000  0.116200  0.100000  1.0  -0.1494
  C  C100  1  0.808020  0.376900  0.231680  1.0  0.7198
  C  C101  1  0.468400  0.860800  0.816000  1.0  -0.1271
  C  C102  1  0.985900  0.290700  0.857800  1.0  -0.113
  C  C103  1  0.730000  0.810300  0.873300  1.0  -0.0304
  C  C104  1  0.368580  0.395200  0.809220  1.0  -0.1063
  C  C105  1  0.470200  0.791900  0.242700  1.0  -0.1439
  C  C106  1  0.836340  0.237200  0.353860  1.0  0.0137
  C  C107  1  0.990870  0.775000  0.349730  1.0  -0.0926
  C  C108  1  0.816000  0.284400  0.323200  1.0  -0.1293
  C  C109  1  0.890070  0.695200  0.338730  1.0  0.0961
  C  C110  1  0.851500  0.709300  0.304800  1.0  -0.1139
  C  C111  1  0.812500  0.706200  0.923500  1.0  -0.0045
  C  C112  1  0.345400  0.246600  0.014000  1.0  -0.1504
  C  C113  1  0.357000  0.808600  0.877200  1.0  0.0249
  C  C114  1  0.341600  0.442200  0.791000  1.0  0.7371
  C  C115  1  0.333100  0.649600  0.788300  1.0  -0.1261
  C  C116  1  0.377950  0.804500  0.377550  1.0  0.0696
  C  C117  1  0.507300  0.895600  0.255900  1.0  -0.1059
  C  C118  1  0.379000  0.723000  0.738600  1.0  -0.0293
  C  C119  1  0.426550  0.244500  0.377950  1.0  0.0703
  C  C120  1  0.283500  0.760800  0.897900  1.0  0.0187
  C  C121  1  0.245100  0.052500  0.172000  1.0  0.7409
  C  C122  1  0.400600  0.778200  0.751800  1.0  -0.1529
  C  C123  1  0.912400  0.405700  0.889700  1.0  -0.0653
  C  C124  1  0.172000  0.417100  0.775500  1.0  0.7397
  C  C125  1  0.430200  0.354100  0.779900  1.0  -0.1531
  C  C126  1  0.704600  0.594300  0.493300  1.0  -0.0695
  C  C127  1  0.341300  0.239200  0.477300  1.0  0.0187
  C  C128  1  0.470000  0.221800  0.377600  1.0  -0.1487
  C  C129  1  0.795580  0.604800  0.026620  1.0  -0.1082
  C  C130  1  0.817950  0.195500  0.426550  1.0  0.0709
  C  C131  1  0.994110  0.830900  0.408990  1.0  -0.0248
  C  C132  1  0.493300  0.197900  0.912400  1.0  -0.0673
  C  C133  1  0.866000  0.645900  0.923900  1.0  -0.1536
  C  C134  1  0.382500  0.854000  0.900100  1.0  -0.0954
  C  C135  1  0.541700  0.971400  0.071700  1.0  0.6488
  C  C136  1  0.923500  0.736000  0.370300  1.0  -0.0054
  C  C137  1  0.872100  0.403100  0.989600  1.0  0.7027
  C  C138  1  0.760110  0.169100  0.836790  1.0  -0.025
  C  C139  1  0.450680  0.903100  0.882420  1.0  -0.1215
  C  C140  1  0.846000  0.255200  0.856600  1.0  0.0014
  C  C141  1  0.495800  0.175700  0.868500  1.0  -0.1288
  C  C142  1  0.989600  0.861700  0.607300  1.0  0.7069
  C  C143  1  0.370300  0.293800  0.893700  1.0  -0.0057
  C  C144  1  0.956900  0.028600  0.429700  1.0  0.6478
  C  C145  1  0.869600  0.054400  0.416200  1.0  -0.0301
  C  C146  1  0.413530  0.668100  0.494970  1.0  -0.0706
  C  C147  1  0.306780  0.590500  0.771920  1.0  0.7236
  C  C148  1  0.738600  0.117600  0.538400  1.0  -0.0273
  C  C149  1  0.784130  0.659400  0.990870  1.0  -0.0945
  C  C150  1  0.897900  0.181400  0.341300  1.0  0.0193
  C  C151  1  0.466300  0.189000  0.822700  1.0  -0.0709
  C  C152  1  0.858540  0.295300  0.889160  1.0  0.0292
  C  C153  1  0.982700  0.157100  0.351000  1.0  -0.0299
  C  C154  1  0.529400  0.945600  0.184800  1.0  -0.0301
  C  C155  1  0.275200  0.101200  0.051600  1.0  -0.0202
  C  C156  1  0.955800  0.824300  0.679900  1.0  -0.1287
  C  C157  1  0.805130  0.771200  0.890070  1.0  0.0958
  C  C158  1  0.836930  0.331900  0.254570  1.0  -0.0705
  C  C159  1  0.935100  0.082300  0.397000  1.0  -0.1281
  C  C160  1  0.470000  0.947300  0.910700  1.0  0.7014
  C  C161  1  0.688330  0.124500  0.852170  1.0  0.7159
  C  C162  1  0.836200  0.620000  0.280000  1.0  -0.1455
  C  C163  1  0.471500  0.717400  0.382500  1.0  -0.0942
  C  C164  1  0.438200  0.228900  0.816100  1.0  -0.2208
  C  C165  1  0.464100  0.235300  0.907000  1.0  -0.0673
  C  C166  1  0.637580  0.409500  0.283720  1.0  0.722
  C  C167  1  0.900100  0.282600  0.245900  1.0  -0.0959
  C  C168  1  0.955000  0.771100  0.790700  1.0  -0.2153
  C  C169  1  0.751800  0.152400  0.470000  1.0  -0.1481
  C  C170  1  0.562100  0.350400  0.316500  1.0  -0.1258
  C  C171  1  0.889700  0.802100  0.704600  1.0  -0.067
  C  C172  1  0.100600  0.867400  0.341600  1.0  0.737
  C  C173  1  0.436170  0.459500  0.688330  1.0  0.7156
  C  C174  1  0.377600  0.847600  0.400600  1.0  -0.1576
  C  C175  1  0.254570  0.091500  0.413530  1.0  -0.0706
  C  C176  1  0.889160  0.747700  0.815540  1.0  0.0299
  C  C177  1  0.332900  0.678100  0.868000  1.0  -0.0987
  C  C178  1  0.338730  0.228800  0.966070  1.0  0.0967
  C  C179  1  0.988300  0.811000  0.722700  1.0  -0.067
  C  C180  1  0.452420  0.666900  0.450680  1.0  -0.1221
  C  C181  1  0.775500  0.947500  0.807400  1.0  0.739
  C  C182  1  0.966070  0.304800  0.805130  1.0  0.0955
  C  C183  1  0.779900  0.210100  0.866000  1.0  -0.1569
  C  C184  1  0.023330  0.875500  0.436170  1.0  0.718
  C  C185  1  0.857700  0.764700  0.771200  1.0  -0.0692
  C  C186  1  0.790700  0.745700  0.438200  1.0  -0.2162
  C  C187  1  0.314200  0.191400  0.451600  1.0  0.0225
  C  C188  1  0.847200  0.898800  0.826000  1.0  -0.0207
  C  C189  1  0.231680  0.039700  0.391420  1.0  0.7218
  C  C190  1  0.026620  0.822200  0.368580  1.0  -0.1119
  C  C191  1  0.852170  0.540500  0.023330  1.0  0.7151
  C  C192  1  0.809220  0.177800  0.795580  1.0  -0.1088
  C  C193  1  0.400860  0.809800  0.836340  1.0  0.0145
  C  C194  1  0.416200  0.285800  0.529400  1.0  -0.0307
  C  C195  1  0.071700  0.613400  0.956900  1.0  0.6516
  C  C196  1  0.868500  0.364300  0.955800  1.0  -0.1299
  C  C197  1  0.873300  0.603300  0.316400  1.0  -0.0349
  C  C198  1  0.491900  0.842900  0.174400  1.0  -0.0356
  C  C199  1  0.080300  0.396700  0.730000  1.0  -0.0392
  C  C200  1  0.391420  0.623100  0.568880  1.0  0.7239
  C  C201  1  0.311600  0.626700  0.852900  1.0  -0.0404
  C  C202  1  0.791000  0.132600  0.766800  1.0  0.739
  C  C203  1  0.923900  0.789900  0.430200  1.0  -0.1562
  C  C204  1  0.910700  0.380700  0.142000  1.0  0.7011
  C  C205  1  0.857800  0.843700  0.851500  1.0  -0.1143
  C  C206  1  0.815540  0.704700  0.436760  1.0  0.0304
  C  C207  1  0.722700  0.711000  0.466300  1.0  -0.0703
  C  C208  1  0.344000  0.882400  0.379000  1.0  -0.0299
  C  C209  1  0.882420  0.333100  0.214480  1.0  -0.1207
  C  C210  1  0.304800  0.156300  0.985900  1.0  -0.1137
  C  C211  1  0.494970  0.908500  0.836930  1.0  -0.0705
  C  C212  1  0.377550  0.755500  0.817950  1.0  0.0684
  C  C213  1  0.877200  0.234200  0.314200  1.0  0.0258
  C  C214  1  0.807400  0.582900  0.245100  1.0  0.7398
  C  C215  1  0.893700  0.264000  0.812500  1.0  -0.0036
  C  C216  1  0.408940  0.762800  0.400860  1.0  0.0171
  C  C217  1  0.051600  0.326800  0.847200  1.0  -0.0198
  C  C218  1  0.816100  0.254300  0.955000  1.0  -0.2167
  C  C219  1  0.826000  0.673200  0.275200  1.0  -0.0166
  C  C220  1  0.538400  0.277000  0.344000  1.0  -0.0278
  C  C221  1  0.453900  0.321900  0.345200  1.0  -0.1001
  C  C222  1  0.316400  0.189700  0.080300  1.0  -0.0342
  C  C223  1  0.822700  0.289000  0.988300  1.0  -0.0708
  C  C224  1  0.901200  0.640600  0.345400  1.0  -0.1463
  C  C225  1  0.147200  0.667900  0.935100  1.0  -0.1271
  C  C226  1  0.607300  0.596900  0.531000  1.0  0.6918
  C  C227  1  0.868000  0.200900  0.453900  1.0  -0.0968
  C  C228  1  0.477300  0.619300  0.470000  1.0  0.6983
  C  C229  1  0.520700  0.917700  0.147200  1.0  -0.1289
  C  C230  1  0.907000  0.371100  0.857700  1.0  -0.0702
  C  C231  1  0.531000  0.138300  0.872100  1.0  0.7033
  C  C232  1  0.014000  0.359400  0.739400  1.0  -0.156
  C  C233  1  0.739400  0.753400  0.901200  1.0  -0.1494
  C  C234  1  0.242700  0.712900  0.965400  1.0  -0.1474
  C  C235  1  0.429700  0.386600  0.541700  1.0  0.6485
  C  C236  1  0.520400  0.373300  0.315100  1.0  -0.0417
  C  C237  1  0.349730  0.340600  0.875270  1.0  -0.0945
  C  C238  1  0.409200  0.297400  0.846000  1.0  0.0024
  C  C239  1  0.214480  0.096900  0.452420  1.0  -0.1214
  C  C240  1  0.875270  0.225000  0.784130  1.0  -0.0939
  C  C241  1  0.397000  0.332100  0.520700  1.0  -0.1275
  C  C242  1  0.436760  0.252300  0.858540  1.0  0.0289
  C  C243  1  0.771920  0.078700  0.637580  1.0  0.7239
  C  C244  1  0.836790  0.596900  0.994110  1.0  -0.023
  C  C245  1  0.353860  0.190200  0.408940  1.0  0.018
  C  C246  1  0.392400  0.715600  0.468400  1.0  -0.1274
  C  C247  1  0.848500  0.104400  0.388300  1.0  -0.1032
  C  C248  1  0.451600  0.765800  0.357000  1.0  0.0225
  C  C249  1  0.316500  0.878600  0.333100  1.0  -0.1255
  C  C250  1  0.965400  0.208100  0.321700  1.0  -0.142
  C  C251  1  0.100000  0.380000  0.783800  1.0  -0.1445
  C  C252  1  0.351000  0.333700  0.491900  1.0  -0.033
  C  C253  1  0.766800  0.557800  0.100600  1.0  0.7383
  C  C254  1  0.771200  0.628900  0.464100  1.0  -0.0707
  C  C255  1  0.388300  0.236800  0.507300  1.0  -0.1062
  C  C256  1  0.852900  0.164500  0.520400  1.0  -0.0403
  C  C257  1  0.321700  0.287100  0.470200  1.0  -0.141
  C  C258  1  0.856600  0.702600  0.888200  1.0  0.002
  C  C259  1  0.245900  0.146000  0.471500  1.0  -0.0939
  C  C260  1  0.283720  0.921300  0.306780  1.0  0.7225
  C  C261  1  0.888200  0.744800  0.409200  1.0  0.0026
  C  C262  1  0.788300  0.121400  0.562100  1.0  -0.124
  C  C263  1  0.408990  0.403100  0.760110  1.0  -0.0239
  C  C264  1  0.174400  0.666300  0.982700  1.0  -0.0371
  C  C265  1  0.345200  0.799100  0.332900  1.0  -0.0987
  C  C266  1  0.315100  0.835500  0.311600  1.0  -0.0401
  C  C267  1  0.568880  0.960300  0.808020  1.0  0.7189
  C  C268  1  0.679900  0.635700  0.495800  1.0  -0.1291
  C  C269  1  0.255900  0.763200  0.848500  1.0  -0.1012
  C  C270  1  0.142000  0.052700  0.477300  1.0  0.6982
  C  C271  1  0.184800  0.714200  0.869600  1.0  -0.0296
  C  C272  1  0.783800  0.883800  0.836200  1.0  -0.1454
  O  O273  1  0.338360  0.608900  0.717140  1.0  -0.5708
  O  O274  1  0.538820  0.106700  0.925680  1.0  -0.5606
  O  O275  1  0.967620  0.893300  0.567880  1.0  -0.561
  O  O276  1  0.668570  0.140830  0.804460  1.0  -0.6616
  O  O277  1  0.653980  0.078100  0.912720  1.0  -0.5827
  O  O278  1  0.715340  0.547900  0.128480  1.0  -0.6317
  O  O279  1  0.804460  0.473030  0.054710  1.0  -0.6615
  O  O280  1  0.461490  0.575020  0.533810  1.0  -0.6536
  O  O281  1  0.717140  0.055500  0.673960  1.0  -0.573
  O  O282  1  0.673960  0.391100  0.270540  1.0  -0.5726
  O  O283  1  0.130470  0.928220  0.336550  1.0  -0.5875
  O  O284  1  0.524600  0.942700  0.040500  1.0  -0.5466
  O  O285  1  0.891170  0.424980  0.113530  1.0  -0.655
  O  O286  1  0.807210  0.525480  0.262470  1.0  -0.5865
  O  O287  1  0.735230  0.071780  0.797750  1.0  -0.5855
  O  O288  1  0.599020  0.030400  0.770980  1.0  -0.6481
  O  O289  1  0.418100  0.434900  0.524600  1.0  -0.5472
  O  O290  1  0.047000  0.623600  0.912200  1.0  -0.6386
  O  O291  1  0.054710  0.859170  0.472260  1.0  -0.6586
  O  O292  1  0.567880  0.535500  0.538820  1.0  -0.5594
  O  O293  1  0.912200  0.959200  0.464200  1.0  -0.6301
  O  O294  1  0.336550  0.467020  0.735230  1.0  -0.5865
  O  O295  1  0.262470  0.069680  0.212050  1.0  -0.5888
  O  O296  1  0.128480  0.843820  0.323620  1.0  -0.6324
  O  O297  1  0.038820  0.859300  0.594480  1.0  -0.6635
  O  O298  1  0.533810  0.995300  0.891170  1.0  -0.6515
  O  O299  1  0.270540  0.944500  0.338360  1.0  -0.5732
  O  O300  1  0.212050  0.474520  0.718270  1.0  -0.59
  O  O301  1  0.009180  0.921900  0.424120  1.0  -0.5825
  O  O302  1  0.187820  0.388300  0.822080  1.0  -0.611
  O  O303  1  0.427690  0.935100  0.953410  1.0  -0.4702
  O  O304  1  0.818900  0.418800  0.251500  1.0  -0.5759
  O  O305  1  0.789620  0.611700  0.200480  1.0  -0.6124
  O  O306  1  0.576600  0.040800  0.047000  1.0  -0.6333
  O  O307  1  0.814810  0.070320  0.657070  1.0  -0.6117
  O  O308  1  0.200480  0.990100  0.187820  1.0  -0.6088
  O  O309  1  0.113530  0.004700  0.461490  1.0  -0.6551
  O  O310  1  0.912720  0.566700  0.009180  1.0  -0.5869
  O  O311  1  0.599900  0.929600  0.818900  1.0  -0.5749
  O  O312  1  0.431380  0.630000  0.599020  1.0  -0.6488
  O  O313  1  0.111490  0.064900  0.507410  1.0  -0.4699
  O  O314  1  0.424120  0.433300  0.653980  1.0  -0.5863
  O  O315  1  0.255510  0.528120  0.814810  1.0  -0.6115
  O  O316  1  0.822080  0.009900  0.789620  1.0  -0.6087
  O  O317  1  0.472260  0.526970  0.668570  1.0  -0.6608
  O  O318  1  0.925680  0.464500  0.967620  1.0  -0.5592
  O  O319  1  0.329700  0.581200  0.599900  1.0  -0.5784
  O  O320  1  0.198620  0.969600  0.431380  1.0  -0.6504
  O  O321  1  0.953410  0.381100  0.111490  1.0  -0.47
  O  O322  1  0.770980  0.370000  0.198620  1.0  -0.6498
  O  O323  1  0.657070  0.471880  0.272610  1.0  -0.6124
  O  O324  1  0.718270  0.930320  0.807210  1.0  -0.5853
  O  O325  1  0.507410  0.618900  0.427690  1.0  -0.4685
  O  O326  1  0.040500  0.565100  0.016800  1.0  -0.5477
  O  O327  1  0.016800  0.057300  0.418100  1.0  -0.5484
  O  O328  1  0.594480  0.633300  0.546220  1.0  -0.6628
  O  O329  1  0.820480  0.366700  0.038820  1.0  -0.6658
  O  O330  1  0.323620  0.452100  0.832560  1.0  -0.6322
  O  O331  1  0.272610  0.929680  0.255510  1.0  -0.6163
  O  O332  1  0.546220  0.140700  0.820480  1.0  -0.6631
  O  O333  1  0.832560  0.156180  0.715340  1.0  -0.636
  O  O334  1  0.797750  0.532980  0.130470  1.0  -0.5859
  O  O335  1  0.251500  0.070400  0.329700  1.0  -0.5737
  O  O336  1  0.464200  0.376400  0.576600  1.0  -0.6409
