# generated using pymatgen
data_CuH2(C3O2)2
_symmetry_space_group_name_H-M   'P 1'
_cell_length_a   18.64640000
_cell_length_b   18.64640000
_cell_length_c   18.64640000
_cell_angle_alpha   60.00000000
_cell_angle_beta   60.00000000
_cell_angle_gamma   60.00000000
_symmetry_Int_Tables_number   1
_chemical_formula_structural   CuH2(C3O2)2
_chemical_formula_sum   'Cu12 H24 C72 O48'
_cell_volume   4584.26792074
_cell_formula_units_Z   12
loop_
 _symmetry_equiv_pos_site_id
 _symmetry_equiv_pos_as_xyz
  1  'x, y, z'
loop_
 _atom_site_type_symbol
 _atom_site_label
 _atom_site_symmetry_multiplicity
 _atom_site_fract_x
 _atom_site_fract_y
 _atom_site_fract_z
 _atom_site_occupancy
 _atom_site_charge
  Cu  Cu1  1  0.000000  0.429900  0.000000  1.0  0.9071
  Cu  Cu2  1  0.000000  0.000000  0.570100  1.0  0.9062
  Cu  Cu3  1  0.570100  0.429900  0.000000  1.0  0.9069
  Cu  Cu4  1  0.429900  0.000000  0.000000  1.0  0.9081
  Cu  Cu5  1  0.570100  0.000000  0.000000  1.0  0.9072
  Cu  Cu6  1  0.570100  0.000000  0.429900  1.0  0.9074
  Cu  Cu7  1  0.429900  0.000000  0.570100  1.0  0.9082
  Cu  Cu8  1  0.000000  0.429900  0.570100  1.0  0.9076
  Cu  Cu9  1  0.000000  0.570100  0.429900  1.0  0.9078
  Cu  Cu10  1  0.000000  0.000000  0.429900  1.0  0.9064
  Cu  Cu11  1  0.429900  0.570100  0.000000  1.0  0.9078
  Cu  Cu12  1  0.000000  0.570100  0.000000  1.0  0.9073
  H  H13  1  0.511600  0.729800  0.729800  1.0  0.1241
  H  H14  1  0.270200  0.270200  0.971200  1.0  0.1239
  H  H15  1  0.270200  0.971200  0.488400  1.0  0.1248
  H  H16  1  0.511600  0.028800  0.729800  1.0  0.1243
  H  H17  1  0.028800  0.729800  0.511600  1.0  0.1247
  H  H18  1  0.971200  0.488400  0.270200  1.0  0.1253
  H  H19  1  0.729800  0.729800  0.511600  1.0  0.124
  H  H20  1  0.729800  0.511600  0.028800  1.0  0.1253
  H  H21  1  0.971200  0.270200  0.488400  1.0  0.1245
  H  H22  1  0.971200  0.270200  0.270200  1.0  0.125
  H  H23  1  0.270200  0.971200  0.270200  1.0  0.1252
  H  H24  1  0.729800  0.028800  0.729800  1.0  0.1243
  H  H25  1  0.488400  0.270200  0.971200  1.0  0.124
  H  H26  1  0.729800  0.511600  0.729800  1.0  0.1249
  H  H27  1  0.729800  0.028800  0.511600  1.0  0.1247
  H  H28  1  0.028800  0.511600  0.729800  1.0  0.1254
  H  H29  1  0.270200  0.488400  0.971200  1.0  0.1253
  H  H30  1  0.488400  0.270200  0.270200  1.0  0.1242
  H  H31  1  0.511600  0.729800  0.028800  1.0  0.1244
  H  H32  1  0.729800  0.729800  0.028800  1.0  0.1235
  H  H33  1  0.270200  0.488400  0.270200  1.0  0.1256
  H  H34  1  0.028800  0.729800  0.729800  1.0  0.1243
  H  H35  1  0.488400  0.971200  0.270200  1.0  0.1242
  H  H36  1  0.270200  0.270200  0.488400  1.0  0.124
  C  C37  1  0.967900  0.429500  0.301300  1.0  0.0116
  C  C38  1  0.258800  0.386600  0.386600  1.0  -0.1466
  C  C39  1  0.698700  0.032100  0.570500  1.0  0.012
  C  C40  1  0.163200  0.430000  0.976800  1.0  0.6871
  C  C41  1  0.301300  0.967900  0.301300  1.0  0.0118
  C  C42  1  0.570000  0.570000  0.023200  1.0  0.6868
  C  C43  1  0.430000  0.163200  0.976800  1.0  0.6875
  C  C44  1  0.570000  0.023200  0.570000  1.0  0.6879
  C  C45  1  0.163200  0.976800  0.430000  1.0  0.6874
  C  C46  1  0.386600  0.968000  0.386600  1.0  -0.1453
  C  C47  1  0.570500  0.698700  0.032100  1.0  0.0113
  C  C48  1  0.163200  0.430000  0.430000  1.0  0.6869
  C  C49  1  0.386600  0.258800  0.968000  1.0  -0.1462
  C  C50  1  0.023200  0.836800  0.570000  1.0  0.6885
  C  C51  1  0.570000  0.023200  0.836800  1.0  0.6878
  C  C52  1  0.570500  0.698700  0.698700  1.0  0.0113
  C  C53  1  0.301300  0.301300  0.429500  1.0  0.0121
  C  C54  1  0.430000  0.976800  0.430000  1.0  0.6883
  C  C55  1  0.032100  0.698700  0.570500  1.0  0.0117
  C  C56  1  0.301300  0.429500  0.967900  1.0  0.0107
  C  C57  1  0.613400  0.613400  0.032000  1.0  -0.1462
  C  C58  1  0.698700  0.698700  0.032100  1.0  0.0127
  C  C59  1  0.386600  0.386600  0.258800  1.0  -0.146
  C  C60  1  0.967900  0.301300  0.301300  1.0  0.012
  C  C61  1  0.430000  0.430000  0.976800  1.0  0.6869
  C  C62  1  0.430000  0.976800  0.163200  1.0  0.6884
  C  C63  1  0.429500  0.967900  0.301300  1.0  0.0132
  C  C64  1  0.301300  0.301300  0.967900  1.0  0.0116
  C  C65  1  0.430000  0.430000  0.163200  1.0  0.6871
  C  C66  1  0.698700  0.032100  0.698700  1.0  0.0122
  C  C67  1  0.032100  0.570500  0.698700  1.0  0.0115
  C  C68  1  0.032000  0.613400  0.741200  1.0  -0.1458
  C  C69  1  0.023200  0.570000  0.836800  1.0  0.6883
  C  C70  1  0.386600  0.258800  0.386600  1.0  -0.1466
  C  C71  1  0.836800  0.570000  0.023200  1.0  0.687
  C  C72  1  0.698700  0.698700  0.570500  1.0  0.0128
  C  C73  1  0.258800  0.968000  0.386600  1.0  -0.1458
  C  C74  1  0.570000  0.836800  0.570000  1.0  0.6876
  C  C75  1  0.741200  0.613400  0.613400  1.0  -0.1458
  C  C76  1  0.968000  0.386600  0.386600  1.0  -0.1462
  C  C77  1  0.301300  0.429500  0.301300  1.0  0.0108
  C  C78  1  0.613400  0.032000  0.613400  1.0  -0.1447
  C  C79  1  0.570000  0.836800  0.023200  1.0  0.6874
  C  C80  1  0.968000  0.258800  0.386600  1.0  -0.1463
  C  C81  1  0.613400  0.032000  0.741200  1.0  -0.146
  C  C82  1  0.741200  0.613400  0.032000  1.0  -0.1464
  C  C83  1  0.976800  0.163200  0.430000  1.0  0.6882
  C  C84  1  0.836800  0.570000  0.570000  1.0  0.6871
  C  C85  1  0.976800  0.430000  0.430000  1.0  0.6882
  C  C86  1  0.968000  0.386600  0.258800  1.0  -0.1451
  C  C87  1  0.741200  0.032000  0.613400  1.0  -0.1453
  C  C88  1  0.386600  0.968000  0.258800  1.0  -0.1445
  C  C89  1  0.613400  0.741200  0.613400  1.0  -0.1459
  C  C90  1  0.032000  0.741200  0.613400  1.0  -0.146
  C  C91  1  0.836800  0.023200  0.570000  1.0  0.6874
  C  C92  1  0.301300  0.967900  0.429500  1.0  0.0114
  C  C93  1  0.386600  0.386600  0.968000  1.0  -0.1461
  C  C94  1  0.613400  0.741200  0.032000  1.0  -0.1463
  C  C95  1  0.613400  0.613400  0.741200  1.0  -0.1461
  C  C96  1  0.698700  0.570500  0.698700  1.0  0.0132
  C  C97  1  0.698700  0.570500  0.032100  1.0  0.013
  C  C98  1  0.258800  0.386600  0.968000  1.0  -0.1462
  C  C99  1  0.429500  0.301300  0.301300  1.0  0.0128
  C  C100  1  0.976800  0.430000  0.163200  1.0  0.6883
  C  C101  1  0.032000  0.613400  0.613400  1.0  -0.1449
  C  C102  1  0.023200  0.570000  0.570000  1.0  0.6882
  C  C103  1  0.430000  0.163200  0.430000  1.0  0.6874
  C  C104  1  0.570000  0.570000  0.836800  1.0  0.6867
  C  C105  1  0.429500  0.301300  0.967900  1.0  0.0129
  C  C106  1  0.032100  0.698700  0.698700  1.0  0.012
  C  C107  1  0.570500  0.032100  0.698700  1.0  0.0114
  C  C108  1  0.967900  0.301300  0.429500  1.0  0.0118
  O  O109  1  0.508310  0.387310  0.979050  1.0  -0.5678
  O  O110  1  0.387310  0.508310  0.125330  1.0  -0.5658
  O  O111  1  0.508310  0.979050  0.387310  1.0  -0.5656
  O  O112  1  0.491690  0.612690  0.020950  1.0  -0.5663
  O  O113  1  0.874670  0.612690  0.491690  1.0  -0.5678
  O  O114  1  0.491690  0.020950  0.612690  1.0  -0.5655
  O  O115  1  0.508310  0.979050  0.125330  1.0  -0.5662
  O  O116  1  0.125330  0.508310  0.979050  1.0  -0.5656
  O  O117  1  0.874670  0.020950  0.491690  1.0  -0.5653
  O  O118  1  0.612690  0.491690  0.020950  1.0  -0.5661
  O  O119  1  0.387310  0.125330  0.979050  1.0  -0.5664
  O  O120  1  0.491690  0.020950  0.874670  1.0  -0.5652
  O  O121  1  0.491690  0.874670  0.612690  1.0  -0.5648
  O  O122  1  0.020950  0.874670  0.491690  1.0  -0.5657
  O  O123  1  0.612690  0.020950  0.874670  1.0  -0.5646
  O  O124  1  0.125330  0.387310  0.508310  1.0  -0.5682
  O  O125  1  0.020950  0.491690  0.874670  1.0  -0.5667
  O  O126  1  0.874670  0.612690  0.020950  1.0  -0.5679
  O  O127  1  0.387310  0.125330  0.508310  1.0  -0.567
  O  O128  1  0.979050  0.125330  0.508310  1.0  -0.566
  O  O129  1  0.612690  0.020950  0.491690  1.0  -0.5644
  O  O130  1  0.508310  0.125330  0.387310  1.0  -0.5639
  O  O131  1  0.020950  0.874670  0.612690  1.0  -0.5647
  O  O132  1  0.874670  0.020950  0.612690  1.0  -0.5654
  O  O133  1  0.387310  0.979050  0.508310  1.0  -0.5645
  O  O134  1  0.020950  0.612690  0.491690  1.0  -0.5659
  O  O135  1  0.125330  0.979050  0.387310  1.0  -0.5664
  O  O136  1  0.020950  0.491690  0.612690  1.0  -0.5667
  O  O137  1  0.612690  0.491690  0.874670  1.0  -0.5664
  O  O138  1  0.125330  0.979050  0.508310  1.0  -0.5662
  O  O139  1  0.125330  0.387310  0.979050  1.0  -0.5675
  O  O140  1  0.979050  0.387310  0.508310  1.0  -0.5661
  O  O141  1  0.125330  0.508310  0.387310  1.0  -0.5648
  O  O142  1  0.612690  0.874670  0.491690  1.0  -0.5661
  O  O143  1  0.874670  0.491690  0.612690  1.0  -0.5665
  O  O144  1  0.491690  0.874670  0.020950  1.0  -0.5646
  O  O145  1  0.874670  0.491690  0.020950  1.0  -0.5662
  O  O146  1  0.508310  0.387310  0.125330  1.0  -0.5673
  O  O147  1  0.020950  0.612690  0.874670  1.0  -0.5658
  O  O148  1  0.979050  0.125330  0.387310  1.0  -0.5661
  O  O149  1  0.387310  0.979050  0.125330  1.0  -0.5648
  O  O150  1  0.979050  0.387310  0.125330  1.0  -0.5664
  O  O151  1  0.979050  0.508310  0.125330  1.0  -0.5663
  O  O152  1  0.491690  0.612690  0.874670  1.0  -0.5668
  O  O153  1  0.387310  0.508310  0.979050  1.0  -0.5663
  O  O154  1  0.508310  0.125330  0.979050  1.0  -0.5646
  O  O155  1  0.612690  0.874670  0.020950  1.0  -0.5668
  O  O156  1  0.979050  0.508310  0.387310  1.0  -0.5661
