# generated using pymatgen
data_CuH2(C3O2)2
_symmetry_space_group_name_H-M   'P 1'
_cell_length_a   18.60750000
_cell_length_b   18.60750000
_cell_length_c   18.60750000
_cell_angle_alpha   60.00000000
_cell_angle_beta   60.00000000
_cell_angle_gamma   60.00000000
_symmetry_Int_Tables_number   1
_chemical_formula_structural   CuH2(C3O2)2
_chemical_formula_sum   'Cu12 H24 C72 O48'
_cell_volume   4555.63672318
_cell_formula_units_Z   12
loop_
 _symmetry_equiv_pos_site_id
 _symmetry_equiv_pos_as_xyz
  1  'x, y, z'
loop_
 _atom_site_type_symbol
 _atom_site_label
 _atom_site_symmetry_multiplicity
 _atom_site_fract_x
 _atom_site_fract_y
 _atom_site_fract_z
 _atom_site_occupancy
 _atom_site_charge
  Cu  Cu1  1  0.000000  0.000000  0.429310  1.0  0.8972
  Cu  Cu2  1  0.000000  0.570690  0.429310  1.0  0.8981
  Cu  Cu3  1  0.429310  0.000000  0.570690  1.0  0.899
  Cu  Cu4  1  0.000000  0.570690  0.000000  1.0  0.8978
  Cu  Cu5  1  0.570690  0.429310  0.000000  1.0  0.8981
  Cu  Cu6  1  0.570690  0.000000  0.000000  1.0  0.8982
  Cu  Cu7  1  0.000000  0.000000  0.570690  1.0  0.8965
  Cu  Cu8  1  0.570690  0.000000  0.429310  1.0  0.8983
  Cu  Cu9  1  0.429310  0.000000  0.000000  1.0  0.8988
  Cu  Cu10  1  0.000000  0.429310  0.000000  1.0  0.898
  Cu  Cu11  1  0.000000  0.429310  0.570690  1.0  0.8986
  Cu  Cu12  1  0.429310  0.570690  0.000000  1.0  0.8981
  H  H13  1  0.511600  0.729800  0.729800  1.0  0.121
  H  H14  1  0.729800  0.028800  0.729800  1.0  0.1211
  H  H15  1  0.270200  0.270200  0.971200  1.0  0.1206
  H  H16  1  0.511600  0.028800  0.729800  1.0  0.121
  H  H17  1  0.028800  0.729800  0.511600  1.0  0.1214
  H  H18  1  0.729800  0.511600  0.729800  1.0  0.1217
  H  H19  1  0.729800  0.511600  0.028800  1.0  0.122
  H  H20  1  0.488400  0.270200  0.971200  1.0  0.1209
  H  H21  1  0.270200  0.971200  0.270200  1.0  0.1215
  H  H22  1  0.270200  0.971200  0.488400  1.0  0.1211
  H  H23  1  0.971200  0.270200  0.488400  1.0  0.1208
  H  H24  1  0.729800  0.729800  0.511600  1.0  0.1209
  H  H25  1  0.270200  0.488400  0.270200  1.0  0.1221
  H  H26  1  0.028800  0.729800  0.729800  1.0  0.121
  H  H27  1  0.971200  0.270200  0.270200  1.0  0.1214
  H  H28  1  0.488400  0.971200  0.270200  1.0  0.1211
  H  H29  1  0.729800  0.028800  0.511600  1.0  0.1216
  H  H30  1  0.028800  0.511600  0.729800  1.0  0.122
  H  H31  1  0.270200  0.488400  0.971200  1.0  0.122
  H  H32  1  0.488400  0.270200  0.270200  1.0  0.121
  H  H33  1  0.511600  0.729800  0.028800  1.0  0.1213
  H  H34  1  0.729800  0.729800  0.028800  1.0  0.1208
  H  H35  1  0.971200  0.488400  0.270200  1.0  0.1218
  H  H36  1  0.270200  0.270200  0.488400  1.0  0.1209
  C  C37  1  0.613110  0.031310  0.613110  1.0  -0.1535
  C  C38  1  0.386890  0.968690  0.257530  1.0  -0.1531
  C  C39  1  0.613110  0.613110  0.031310  1.0  -0.1541
  C  C40  1  0.837220  0.569120  0.569120  1.0  0.6784
  C  C41  1  0.975460  0.430880  0.162780  1.0  0.6804
  C  C42  1  0.162780  0.430880  0.430880  1.0  0.6789
  C  C43  1  0.300890  0.300890  0.968410  1.0  0.0161
  C  C44  1  0.257530  0.968690  0.386890  1.0  -0.1537
  C  C45  1  0.300890  0.968410  0.300890  1.0  0.016
  C  C46  1  0.837220  0.569120  0.024540  1.0  0.6786
  C  C47  1  0.024540  0.569120  0.837220  1.0  0.6805
  C  C48  1  0.968410  0.300890  0.300890  1.0  0.0164
  C  C49  1  0.613110  0.613110  0.742470  1.0  -0.1542
  C  C50  1  0.430880  0.162780  0.430880  1.0  0.6795
  C  C51  1  0.031590  0.699110  0.699110  1.0  0.0163
  C  C52  1  0.570190  0.699110  0.699110  1.0  0.016
  C  C53  1  0.386890  0.257530  0.968690  1.0  -0.1537
  C  C54  1  0.975460  0.430880  0.430880  1.0  0.6807
  C  C55  1  0.024540  0.837220  0.569120  1.0  0.6802
  C  C56  1  0.430880  0.975460  0.162780  1.0  0.6801
  C  C57  1  0.162780  0.430880  0.975460  1.0  0.6787
  C  C58  1  0.031590  0.699110  0.570190  1.0  0.016
  C  C59  1  0.031310  0.613110  0.613110  1.0  -0.1537
  C  C60  1  0.430880  0.430880  0.162780  1.0  0.6797
  C  C61  1  0.429810  0.300890  0.300890  1.0  0.0167
  C  C62  1  0.569120  0.837220  0.569120  1.0  0.6797
  C  C63  1  0.429810  0.300890  0.968410  1.0  0.017
  C  C64  1  0.742470  0.613110  0.613110  1.0  -0.1537
  C  C65  1  0.569120  0.569120  0.024540  1.0  0.6789
  C  C66  1  0.699110  0.570190  0.699110  1.0  0.0166
  C  C67  1  0.386890  0.968690  0.386890  1.0  -0.1535
  C  C68  1  0.300890  0.429810  0.968410  1.0  0.0145
  C  C69  1  0.429810  0.968410  0.300890  1.0  0.0173
  C  C70  1  0.386890  0.386890  0.968690  1.0  -0.1542
  C  C71  1  0.742470  0.031310  0.613110  1.0  -0.1536
  C  C72  1  0.300890  0.968410  0.429810  1.0  0.0158
  C  C73  1  0.968410  0.300890  0.429810  1.0  0.0163
  C  C74  1  0.031310  0.613110  0.742470  1.0  -0.1541
  C  C75  1  0.837220  0.024540  0.569120  1.0  0.6787
  C  C76  1  0.257530  0.386890  0.968690  1.0  -0.1541
  C  C77  1  0.257530  0.386890  0.386890  1.0  -0.1545
  C  C78  1  0.430880  0.162780  0.975460  1.0  0.6793
  C  C79  1  0.613110  0.031310  0.742470  1.0  -0.154
  C  C80  1  0.968690  0.386890  0.257530  1.0  -0.1539
  C  C81  1  0.031590  0.570190  0.699110  1.0  0.0158
  C  C82  1  0.024540  0.569120  0.569120  1.0  0.6802
  C  C83  1  0.699110  0.570190  0.031590  1.0  0.0166
  C  C84  1  0.613110  0.742470  0.031310  1.0  -0.1535
  C  C85  1  0.430880  0.430880  0.975460  1.0  0.6797
  C  C86  1  0.031310  0.742470  0.613110  1.0  -0.1535
  C  C87  1  0.975460  0.162780  0.430880  1.0  0.6801
  C  C88  1  0.386890  0.257530  0.386890  1.0  -0.1539
  C  C89  1  0.968690  0.257530  0.386890  1.0  -0.1539
  C  C90  1  0.430880  0.975460  0.430880  1.0  0.6803
  C  C91  1  0.699110  0.699110  0.031590  1.0  0.0168
  C  C92  1  0.699110  0.699110  0.570190  1.0  0.0167
  C  C93  1  0.613110  0.742470  0.613110  1.0  -0.1532
  C  C94  1  0.699110  0.031590  0.699110  1.0  0.0163
  C  C95  1  0.569120  0.569120  0.837220  1.0  0.679
  C  C96  1  0.569120  0.024540  0.569120  1.0  0.6796
  C  C97  1  0.968690  0.386890  0.386890  1.0  -0.1544
  C  C98  1  0.570190  0.699110  0.031590  1.0  0.0159
  C  C99  1  0.569120  0.024540  0.837220  1.0  0.68
  C  C100  1  0.300890  0.429810  0.300890  1.0  0.0144
  C  C101  1  0.570190  0.031590  0.699110  1.0  0.0155
  C  C102  1  0.699110  0.031590  0.570190  1.0  0.016
  C  C103  1  0.162780  0.975460  0.430880  1.0  0.679
  C  C104  1  0.569120  0.837220  0.024540  1.0  0.68
  C  C105  1  0.742470  0.613110  0.031310  1.0  -0.154
  C  C106  1  0.300890  0.300890  0.429810  1.0  0.0166
  C  C107  1  0.968410  0.429810  0.300890  1.0  0.0153
  C  C108  1  0.386890  0.386890  0.257530  1.0  -0.1539
  O  O109  1  0.612820  0.873740  0.492240  1.0  -0.5563
  O  O110  1  0.978800  0.507760  0.126260  1.0  -0.5561
  O  O111  1  0.387180  0.126260  0.507760  1.0  -0.5562
  O  O112  1  0.612820  0.021200  0.492240  1.0  -0.5553
  O  O113  1  0.612820  0.021200  0.873740  1.0  -0.5555
  O  O114  1  0.507760  0.387180  0.978800  1.0  -0.5567
  O  O115  1  0.873740  0.021200  0.492240  1.0  -0.5552
  O  O116  1  0.021200  0.873740  0.492240  1.0  -0.5556
  O  O117  1  0.612820  0.492240  0.873740  1.0  -0.5565
  O  O118  1  0.021200  0.492240  0.612820  1.0  -0.5559
  O  O119  1  0.387180  0.126260  0.978800  1.0  -0.5562
  O  O120  1  0.492240  0.873740  0.021200  1.0  -0.5559
  O  O121  1  0.978800  0.387180  0.507760  1.0  -0.5561
  O  O122  1  0.492240  0.612820  0.873740  1.0  -0.5569
  O  O123  1  0.126260  0.387180  0.507760  1.0  -0.5562
  O  O124  1  0.978800  0.387180  0.126260  1.0  -0.5564
  O  O125  1  0.507760  0.978800  0.126260  1.0  -0.5567
  O  O126  1  0.873740  0.492240  0.021200  1.0  -0.5567
  O  O127  1  0.978800  0.126260  0.507760  1.0  -0.5558
  O  O128  1  0.387180  0.978800  0.126260  1.0  -0.5553
  O  O129  1  0.021200  0.492240  0.873740  1.0  -0.5559
  O  O130  1  0.507760  0.126260  0.978800  1.0  -0.5558
  O  O131  1  0.873740  0.612820  0.021200  1.0  -0.5563
  O  O132  1  0.387180  0.978800  0.507760  1.0  -0.5554
  O  O133  1  0.126260  0.507760  0.387180  1.0  -0.556
  O  O134  1  0.021200  0.873740  0.612820  1.0  -0.5555
  O  O135  1  0.612820  0.873740  0.021200  1.0  -0.5563
  O  O136  1  0.387180  0.507760  0.978800  1.0  -0.5567
  O  O137  1  0.492240  0.021200  0.612820  1.0  -0.5564
  O  O138  1  0.021200  0.612820  0.873740  1.0  -0.5562
  O  O139  1  0.507760  0.978800  0.387180  1.0  -0.5565
  O  O140  1  0.126260  0.978800  0.507760  1.0  -0.5557
  O  O141  1  0.612820  0.492240  0.021200  1.0  -0.5564
  O  O142  1  0.126260  0.387180  0.978800  1.0  -0.556
  O  O143  1  0.873740  0.612820  0.492240  1.0  -0.557
  O  O144  1  0.873740  0.021200  0.612820  1.0  -0.5552
  O  O145  1  0.492240  0.612820  0.021200  1.0  -0.5569
  O  O146  1  0.978800  0.507760  0.387180  1.0  -0.5559
  O  O147  1  0.126260  0.507760  0.978800  1.0  -0.5565
  O  O148  1  0.507760  0.126260  0.387180  1.0  -0.5556
  O  O149  1  0.387180  0.507760  0.126260  1.0  -0.5568
  O  O150  1  0.492240  0.021200  0.873740  1.0  -0.556
  O  O151  1  0.126260  0.978800  0.387180  1.0  -0.5562
  O  O152  1  0.873740  0.492240  0.612820  1.0  -0.5564
  O  O153  1  0.021200  0.612820  0.492240  1.0  -0.5557
  O  O154  1  0.507760  0.387180  0.126260  1.0  -0.5567
  O  O155  1  0.492240  0.873740  0.612820  1.0  -0.5558
  O  O156  1  0.978800  0.126260  0.387180  1.0  -0.5559
