# generated using pymatgen
data_Dy2H6(C3O4)3
_symmetry_space_group_name_H-M   'P 1'
_cell_length_a   10.56840000
_cell_length_b   10.56840000
_cell_length_c   10.92670000
_cell_angle_alpha   78.78360000
_cell_angle_beta   62.49250000
_cell_angle_gamma   108.74500000
_symmetry_Int_Tables_number   1
_chemical_formula_structural   Dy2H6(C3O4)3
_chemical_formula_sum   'Dy4 H12 C18 O24'
_cell_volume   935.69573966
_cell_formula_units_Z   2
loop_
 _symmetry_equiv_pos_site_id
 _symmetry_equiv_pos_as_xyz
  1  'x, y, z'
loop_
 _atom_site_type_symbol
 _atom_site_label
 _atom_site_symmetry_multiplicity
 _atom_site_fract_x
 _atom_site_fract_y
 _atom_site_fract_z
 _atom_site_occupancy
 _atom_site_charge
  Dy  Dy1  1  0.244710  0.431310  0.620130  1.0  2.312
  Dy  Dy2  1  0.551440  0.864840  0.879870  1.0  2.3121
  Dy  Dy3  1  0.755290  0.568690  0.379870  1.0  2.3127
  Dy  Dy4  1  0.448560  0.135160  0.120130  1.0  2.3115
  H  H5  1  0.963900  0.886300  0.814800  1.0  0.1831
  H  H6  1  0.104800  0.989600  0.646400  1.0  0.1772
  H  H7  1  0.733100  0.890800  0.217100  1.0  0.1358
  H  H8  1  0.201100  0.778700  0.685200  1.0  0.1812
  H  H9  1  0.136000  0.751200  0.853600  1.0  0.1719
  H  H10  1  0.607900  0.950200  0.282900  1.0  0.1374
  H  H11  1  0.036100  0.113700  0.185200  1.0  0.1825
  H  H12  1  0.895200  0.010400  0.353600  1.0  0.1786
  H  H13  1  0.266900  0.109200  0.782900  1.0  0.1438
  H  H14  1  0.798900  0.221300  0.314800  1.0  0.1826
  H  H15  1  0.864000  0.248800  0.146400  1.0  0.1732
  H  H16  1  0.392100  0.049800  0.717100  1.0  0.1392
  C  C17  1  0.953600  0.072300  0.741900  1.0  0.9293
  C  C18  1  0.989200  0.948000  0.719800  1.0  -0.6372
  C  C19  1  0.903100  0.850300  0.668600  1.0  0.8519
  C  C20  1  0.499000  0.723900  0.375700  1.0  0.8013
  C  C21  1  0.314200  0.695500  0.758100  1.0  0.9239
  C  C22  1  0.167800  0.709000  0.780200  1.0  -0.6383
  C  C23  1  0.018900  0.571700  0.831400  1.0  0.849
  C  C24  1  0.599600  0.874700  0.124300  1.0  0.8056
  C  C25  1  0.046400  0.927700  0.258100  1.0  0.9257
  C  C26  1  0.010800  0.052000  0.280200  1.0  -0.6348
  C  C27  1  0.096900  0.149700  0.331400  1.0  0.8497
  C  C28  1  0.501000  0.276100  0.624300  1.0  0.8024
  C  C29  1  0.685800  0.304500  0.241900  1.0  0.9262
  C  C30  1  0.832200  0.291000  0.219800  1.0  -0.6365
  C  C31  1  0.981100  0.428300  0.168600  1.0  0.8479
  C  C32  1  0.400400  0.125300  0.875700  1.0  0.8073
  C  C33  1  0.624700  0.874700  0.250000  1.0  -0.5055
  C  C34  1  0.375300  0.125300  0.750000  1.0  -0.5066
  O  O35  1  0.067700  0.184300  0.714400  1.0  -0.7903
  O  O36  1  0.813800  0.057400  0.791800  1.0  -0.7372
  O  O37  1  0.983800  0.812700  0.572300  1.0  -0.5991
  O  O38  1  0.753970  0.808870  0.725900  1.0  -0.8249
  O  O39  1  0.352330  0.691570  0.440900  1.0  -0.6787
  O  O40  1  0.542100  0.631500  0.408200  1.0  -0.8709
  O  O41  1  0.398700  0.782100  0.785600  1.0  -0.7881
  O  O42  1  0.349200  0.605600  0.708200  1.0  -0.7328
  O  O43  1  0.885000  0.556100  0.927700  1.0  -0.6021
  O  O44  1  0.034770  0.479870  0.774100  1.0  -0.8274
  O  O45  1  0.632470  0.793230  0.059100  1.0  -0.6737
  O  O46  1  0.539700  0.950300  0.091800  1.0  -0.8732
  O  O47  1  0.932300  0.815700  0.285600  1.0  -0.7865
  O  O48  1  0.186200  0.942600  0.208200  1.0  -0.7347
  O  O49  1  0.016200  0.187300  0.427700  1.0  -0.5986
  O  O50  1  0.246030  0.191130  0.274100  1.0  -0.828
  O  O51  1  0.647670  0.308430  0.559100  1.0  -0.6797
  O  O52  1  0.457900  0.368500  0.591800  1.0  -0.872
  O  O53  1  0.601300  0.217900  0.214400  1.0  -0.7877
  O  O54  1  0.650800  0.394400  0.291800  1.0  -0.7317
  O  O55  1  0.115000  0.443900  0.072300  1.0  -0.6028
  O  O56  1  0.965230  0.520130  0.225900  1.0  -0.8295
  O  O57  1  0.367530  0.206770  0.940900  1.0  -0.6753
  O  O58  1  0.460300  0.049700  0.908200  1.0  -0.8714
