# generated using pymatgen
data_CuH9C11O6
_symmetry_space_group_name_H-M   'P 1'
_cell_length_a   18.62300000
_cell_length_b   18.62300000
_cell_length_c   6.89730000
_cell_angle_alpha   90.00000000
_cell_angle_beta   90.00000000
_cell_angle_gamma   120.00000000
_symmetry_Int_Tables_number   1
_chemical_formula_structural   CuH9C11O6
_chemical_formula_sum   'Cu6 H54 C66 O36'
_cell_volume   2071.61494002
_cell_formula_units_Z   6
loop_
 _symmetry_equiv_pos_site_id
 _symmetry_equiv_pos_as_xyz
  1  'x, y, z'
loop_
 _atom_site_type_symbol
 _atom_site_label
 _atom_site_symmetry_multiplicity
 _atom_site_fract_x
 _atom_site_fract_y
 _atom_site_fract_z
 _atom_site_occupancy
 _atom_site_charge
  Cu  Cu1  1  0.476770  0.523230  0.155400  1.0  0.8997
  Cu  Cu2  1  0.476770  0.953540  0.155400  1.0  0.9004
  Cu  Cu3  1  0.046460  0.523230  0.155400  1.0  0.8979
  Cu  Cu4  1  0.523230  0.476770  0.844600  1.0  0.8979
  Cu  Cu5  1  0.953540  0.476770  0.844600  1.0  0.9009
  Cu  Cu6  1  0.523230  0.046460  0.844600  1.0  0.9031
  H  H7  1  0.361000  0.289800  0.471800  1.0  0.0977
  H  H8  1  0.230200  0.993100  0.943200  1.0  0.2249
  H  H9  1  0.262600  0.081400  0.026300  1.0  0.1138
  H  H10  1  0.181400  0.039200  0.905600  1.0  0.0828
  H  H11  1  0.710200  0.071200  0.471800  1.0  0.0999
  H  H12  1  0.006900  0.237100  0.943200  1.0  0.2301
  H  H13  1  0.918600  0.181200  0.026300  1.0  0.108
  H  H14  1  0.960800  0.142200  0.905600  1.0  0.0814
  H  H15  1  0.928800  0.639000  0.471800  1.0  0.0976
  H  H16  1  0.762900  0.769800  0.943200  1.0  0.2227
  H  H17  1  0.818800  0.737400  0.026300  1.0  0.1107
  H  H18  1  0.857800  0.818600  0.905600  1.0  0.0825
  H  H19  1  0.289800  0.361000  0.528200  1.0  0.0971
  H  H20  1  0.993100  0.230200  0.056800  1.0  0.2259
  H  H21  1  0.081400  0.262600  0.973700  1.0  0.1115
  H  H22  1  0.039200  0.181400  0.094400  1.0  0.0806
  H  H23  1  0.071200  0.710200  0.528200  1.0  0.0974
  H  H24  1  0.237100  0.006900  0.056800  1.0  0.2289
  H  H25  1  0.181200  0.918600  0.973700  1.0  0.1101
  H  H26  1  0.142200  0.960800  0.094400  1.0  0.0828
  H  H27  1  0.639000  0.928800  0.528200  1.0  0.0994
  H  H28  1  0.769800  0.762900  0.056800  1.0  0.2264
  H  H29  1  0.737400  0.818800  0.973700  1.0  0.1085
  H  H30  1  0.818600  0.857800  0.094400  1.0  0.0809
  H  H31  1  0.639000  0.710200  0.528200  1.0  0.0986
  H  H32  1  0.769800  0.006900  0.056800  1.0  0.2278
  H  H33  1  0.737400  0.918600  0.973700  1.0  0.1102
  H  H34  1  0.818600  0.960800  0.094400  1.0  0.0873
  H  H35  1  0.289800  0.928800  0.528200  1.0  0.099
  H  H36  1  0.993100  0.762900  0.056800  1.0  0.2267
  H  H37  1  0.081400  0.818800  0.973700  1.0  0.1105
  H  H38  1  0.039200  0.857800  0.094400  1.0  0.081
  H  H39  1  0.071200  0.361000  0.528200  1.0  0.0968
  H  H40  1  0.237100  0.230200  0.056800  1.0  0.2255
  H  H41  1  0.181200  0.262600  0.973700  1.0  0.1111
  H  H42  1  0.142200  0.181400  0.094400  1.0  0.0806
  H  H43  1  0.710200  0.639000  0.471800  1.0  0.0973
  H  H44  1  0.006900  0.769800  0.943200  1.0  0.222
  H  H45  1  0.918600  0.737400  0.026300  1.0  0.1089
  H  H46  1  0.960800  0.818600  0.905600  1.0  0.082
  H  H47  1  0.928800  0.289800  0.471800  1.0  0.0985
  H  H48  1  0.762900  0.993100  0.943200  1.0  0.2248
  H  H49  1  0.818800  0.081400  0.026300  1.0  0.1135
  H  H50  1  0.857800  0.039200  0.905600  1.0  0.0872
  H  H51  1  0.361000  0.071200  0.471800  1.0  0.0993
  H  H52  1  0.230200  0.237100  0.943200  1.0  0.2304
  H  H53  1  0.262600  0.181200  0.026300  1.0  0.1113
  H  H54  1  0.181400  0.142200  0.905600  1.0  0.0804
  H  H55  1  0.473500  0.236750  0.029400  1.0  0.1034
  H  H56  1  0.763250  0.236750  0.029400  1.0  0.1035
  H  H57  1  0.763250  0.526500  0.029400  1.0  0.1056
  H  H58  1  0.236750  0.473500  0.970600  1.0  0.1064
  H  H59  1  0.236750  0.763250  0.970600  1.0  0.1034
  H  H60  1  0.526500  0.763250  0.970600  1.0  0.1039
  C  C61  1  0.449400  0.358600  0.147600  1.0  0.6651
  C  C62  1  0.421800  0.275700  0.236800  1.0  -0.171
  C  C63  1  0.376100  0.252300  0.407000  1.0  -0.0781
  C  C64  1  0.235600  0.048500  0.914000  1.0  -0.1599
  C  C65  1  0.641400  0.090800  0.147600  1.0  0.6624
  C  C66  1  0.724300  0.146100  0.236800  1.0  -0.1721
  C  C67  1  0.747700  0.123800  0.407000  1.0  -0.0774
  C  C68  1  0.951500  0.187100  0.914000  1.0  -0.155
  C  C69  1  0.909200  0.550600  0.147600  1.0  0.6615
  C  C70  1  0.853900  0.578200  0.236800  1.0  -0.1687
  C  C71  1  0.876200  0.623900  0.407000  1.0  -0.0778
  C  C72  1  0.812900  0.764400  0.914000  1.0  -0.156
  C  C73  1  0.358600  0.449400  0.852400  1.0  0.662
  C  C74  1  0.275700  0.421800  0.763200  1.0  -0.1687
  C  C75  1  0.252300  0.376100  0.593000  1.0  -0.0774
  C  C76  1  0.048500  0.235600  0.086000  1.0  -0.1528
  C  C77  1  0.090800  0.641400  0.852400  1.0  0.6652
  C  C78  1  0.146100  0.724300  0.763200  1.0  -0.1721
  C  C79  1  0.123800  0.747700  0.593000  1.0  -0.0781
  C  C80  1  0.187100  0.951500  0.086000  1.0  -0.1543
  C  C81  1  0.550600  0.909200  0.852400  1.0  0.6627
  C  C82  1  0.578200  0.853900  0.763200  1.0  -0.1729
  C  C83  1  0.623900  0.876200  0.593000  1.0  -0.0755
  C  C84  1  0.764400  0.812900  0.086000  1.0  -0.1525
  C  C85  1  0.550600  0.641400  0.852400  1.0  0.6636
  C  C86  1  0.578200  0.724300  0.763200  1.0  -0.1729
  C  C87  1  0.623900  0.747700  0.593000  1.0  -0.078
  C  C88  1  0.764400  0.951500  0.086000  1.0  -0.1522
  C  C89  1  0.358600  0.909200  0.852400  1.0  0.6641
  C  C90  1  0.275700  0.853900  0.763200  1.0  -0.1706
  C  C91  1  0.252300  0.876200  0.593000  1.0  -0.0757
  C  C92  1  0.048500  0.812900  0.086000  1.0  -0.153
  C  C93  1  0.090800  0.449400  0.852400  1.0  0.6618
  C  C94  1  0.146100  0.421800  0.763200  1.0  -0.1689
  C  C95  1  0.123800  0.376100  0.593000  1.0  -0.0792
  C  C96  1  0.187100  0.235600  0.086000  1.0  -0.1537
  C  C97  1  0.641400  0.550600  0.147600  1.0  0.6618
  C  C98  1  0.724300  0.578200  0.236800  1.0  -0.1691
  C  C99  1  0.747700  0.623900  0.407000  1.0  -0.0783
  C  C100  1  0.951500  0.764400  0.914000  1.0  -0.1549
  C  C101  1  0.909200  0.358600  0.147600  1.0  0.6647
  C  C102  1  0.853900  0.275700  0.236800  1.0  -0.1713
  C  C103  1  0.876200  0.252300  0.407000  1.0  -0.0782
  C  C104  1  0.812900  0.048500  0.914000  1.0  -0.158
  C  C105  1  0.449400  0.090800  0.147600  1.0  0.6637
  C  C106  1  0.421800  0.146100  0.236800  1.0  -0.1709
  C  C107  1  0.376100  0.123800  0.407000  1.0  -0.077
  C  C108  1  0.235600  0.187100  0.914000  1.0  -0.1549
  C  C109  1  0.442900  0.221450  0.151200  1.0  -0.0512
  C  C110  1  0.352300  0.176150  0.487200  1.0  -0.1243
  C  C111  1  0.302900  0.151450  0.670400  1.0  0.6279
  C  C112  1  0.778550  0.221450  0.151200  1.0  -0.0537
  C  C113  1  0.823850  0.176150  0.487200  1.0  -0.1223
  C  C114  1  0.848550  0.151450  0.670400  1.0  0.6291
  C  C115  1  0.778550  0.557100  0.151200  1.0  -0.0464
  C  C116  1  0.823850  0.647700  0.487200  1.0  -0.1206
  C  C117  1  0.848550  0.697100  0.670400  1.0  0.6274
  C  C118  1  0.221450  0.442900  0.848800  1.0  -0.0459
  C  C119  1  0.176150  0.352300  0.512800  1.0  -0.1212
  C  C120  1  0.151450  0.302900  0.329600  1.0  0.6279
  C  C121  1  0.221450  0.778550  0.848800  1.0  -0.0501
  C  C122  1  0.176150  0.823850  0.512800  1.0  -0.1242
  C  C123  1  0.151450  0.848550  0.329600  1.0  0.6272
  C  C124  1  0.557100  0.778550  0.848800  1.0  -0.0535
  C  C125  1  0.647700  0.823850  0.512800  1.0  -0.123
  C  C126  1  0.697100  0.848550  0.329600  1.0  0.6283
  O  O127  1  0.442600  0.411300  0.248200  1.0  -0.5792
  O  O128  1  0.519100  0.628000  0.018800  1.0  -0.5843
  O  O129  1  0.282700  0.081300  0.741200  1.0  -0.3431
  O  O130  1  0.588700  0.031300  0.248200  1.0  -0.5794
  O  O131  1  0.372000  0.891100  0.018800  1.0  -0.5853
  O  O132  1  0.918700  0.201400  0.741200  1.0  -0.3416
  O  O133  1  0.968700  0.557400  0.248200  1.0  -0.5778
  O  O134  1  0.108900  0.480900  0.018800  1.0  -0.5853
  O  O135  1  0.798600  0.717300  0.741200  1.0  -0.343
  O  O136  1  0.411300  0.442600  0.751800  1.0  -0.579
  O  O137  1  0.628000  0.519100  0.981200  1.0  -0.5857
  O  O138  1  0.081300  0.282700  0.258800  1.0  -0.3449
  O  O139  1  0.031300  0.588700  0.751800  1.0  -0.5797
  O  O140  1  0.891100  0.372000  0.981200  1.0  -0.5856
  O  O141  1  0.201400  0.918700  0.258800  1.0  -0.3458
  O  O142  1  0.557400  0.968700  0.751800  1.0  -0.5796
  O  O143  1  0.480900  0.108900  0.981200  1.0  -0.5859
  O  O144  1  0.717300  0.798600  0.258800  1.0  -0.3436
  O  O145  1  0.557400  0.588700  0.751800  1.0  -0.5797
  O  O146  1  0.480900  0.372000  0.981200  1.0  -0.5836
  O  O147  1  0.717300  0.918700  0.258800  1.0  -0.3449
  O  O148  1  0.411300  0.968700  0.751800  1.0  -0.5797
  O  O149  1  0.628000  0.108900  0.981200  1.0  -0.5866
  O  O150  1  0.081300  0.798600  0.258800  1.0  -0.3422
  O  O151  1  0.031300  0.442600  0.751800  1.0  -0.5787
  O  O152  1  0.891100  0.519100  0.981200  1.0  -0.5864
  O  O153  1  0.201400  0.282700  0.258800  1.0  -0.3447
  O  O154  1  0.588700  0.557400  0.248200  1.0  -0.5784
  O  O155  1  0.372000  0.480900  0.018800  1.0  -0.5855
  O  O156  1  0.918700  0.717300  0.741200  1.0  -0.3417
  O  O157  1  0.968700  0.411300  0.248200  1.0  -0.5796
  O  O158  1  0.108900  0.628000  0.018800  1.0  -0.5832
  O  O159  1  0.798600  0.081300  0.741200  1.0  -0.3428
  O  O160  1  0.442600  0.031300  0.248200  1.0  -0.5793
  O  O161  1  0.519100  0.891100  0.018800  1.0  -0.5854
  O  O162  1  0.282700  0.201400  0.741200  1.0  -0.3409
