# generated using pymatgen
data_GdH3C6O7
_symmetry_space_group_name_H-M   'P 1'
_cell_length_a   6.08670000
_cell_length_b   9.48300000
_cell_length_c   10.09600000
_cell_angle_alpha   88.61200000
_cell_angle_beta   74.38500000
_cell_angle_gamma   77.13200000
_symmetry_Int_Tables_number   1
_chemical_formula_structural   GdH3C6O7
_chemical_formula_sum   'Gd2 H6 C12 O14'
_cell_volume   546.74391419
_cell_formula_units_Z   2
loop_
 _symmetry_equiv_pos_site_id
 _symmetry_equiv_pos_as_xyz
  1  'x, y, z'
loop_
 _atom_site_type_symbol
 _atom_site_label
 _atom_site_symmetry_multiplicity
 _atom_site_fract_x
 _atom_site_fract_y
 _atom_site_fract_z
 _atom_site_occupancy
 _atom_site_charge
  Gd  Gd1  1  0.345200  0.941750  0.702990  1.0  2.1108
  Gd  Gd2  1  0.654800  0.058250  0.297010  1.0  2.111
  H  H3  1  0.733000  0.116300  0.704600  1.0  0.4241
  H  H4  1  0.378400  0.968600  0.351400  1.0  0.3555
  H  H5  1  0.267000  0.883700  0.295400  1.0  0.4258
  H  H6  1  0.621600  0.031400  0.648600  1.0  0.3563
  H  H7  1  0.271500  0.441500  0.626200  1.0  0.0876
  H  H8  1  0.728500  0.558500  0.373800  1.0  0.088
  C  C9  1  0.192000  0.721700  0.592200  1.0  0.6765
  C  C10  1  0.093000  0.608600  0.544700  1.0  -0.1398
  C  C11  1  0.808000  0.278300  0.407800  1.0  0.6766
  C  C12  1  0.927000  0.641200  0.466100  1.0  -0.096
  C  C13  1  0.161000  0.206400  0.577500  1.0  0.6956
  C  C14  1  0.073000  0.047400  0.016600  1.0  0.5762
  C  C15  1  0.073000  0.358800  0.533900  1.0  -0.0959
  C  C16  1  0.838000  0.534100  0.424300  1.0  -0.0607
  C  C17  1  0.162000  0.465900  0.575700  1.0  -0.0584
  C  C18  1  0.927000  0.952600  0.983400  1.0  0.5758
  C  C19  1  0.839000  0.793600  0.422500  1.0  0.6958
  C  C20  1  0.907000  0.391400  0.455300  1.0  -0.1415
  O  O21  1  0.004600  0.105900  0.139200  1.0  -0.6341
  O  O22  1  0.663500  0.876300  0.502100  1.0  -0.6919
  O  O23  1  0.673400  0.311500  0.331100  1.0  -0.6582
  O  O24  1  0.062900  0.169900  0.693300  1.0  -0.6313
  O  O25  1  0.865200  0.147600  0.442100  1.0  -0.6406
  O  O26  1  0.995400  0.894100  0.860800  1.0  -0.6352
  O  O27  1  0.398200  0.904000  0.289800  1.0  -0.7782
  O  O28  1  0.252800  0.062100  0.926200  1.0  -0.5981
  O  O29  1  0.747200  0.937900  0.073800  1.0  -0.5978
  O  O30  1  0.134800  0.852400  0.557900  1.0  -0.6383
  O  O31  1  0.326600  0.688500  0.668900  1.0  -0.6563
  O  O32  1  0.336500  0.123700  0.497900  1.0  -0.6945
  O  O33  1  0.601800  0.096000  0.710200  1.0  -0.7757
  O  O34  1  0.937100  0.830100  0.306700  1.0  -0.6329
