# generated using pymatgen
data_Co9H72C108(N9O19)2
_symmetry_space_group_name_H-M   'P 1'
_cell_length_a   13.18520000
_cell_length_b   20.01980000
_cell_length_c   20.01980000
_cell_angle_alpha   103.23200000
_cell_angle_beta   107.66400000
_cell_angle_gamma   72.33610000
_symmetry_Int_Tables_number   1
_chemical_formula_structural   Co9H72C108(N9O19)2
_chemical_formula_sum   'Co9 H72 C108 N18 O38'
_cell_volume   4743.17776214
_cell_formula_units_Z   1
loop_
 _symmetry_equiv_pos_site_id
 _symmetry_equiv_pos_as_xyz
  1  'x, y, z'
loop_
 _atom_site_type_symbol
 _atom_site_label
 _atom_site_symmetry_multiplicity
 _atom_site_fract_x
 _atom_site_fract_y
 _atom_site_fract_z
 _atom_site_occupancy
 _atom_site_charge
  Co  Co1  1  0.436930  0.818030  0.692670  1.0  1.0557
  Co  Co2  1  0.067410  0.275670  0.724330  1.0  0.9687
  Co  Co3  1  0.436930  0.307330  0.181970  1.0  1.0557
  Co  Co4  1  0.563070  0.692670  0.818030  1.0  1.0578
  Co  Co5  1  0.322460  0.292540  0.707460  1.0  0.8929
  Co  Co6  1  0.000000  0.000000  0.000000  1.0  0.6915
  Co  Co7  1  0.563070  0.181970  0.307330  1.0  1.0581
  Co  Co8  1  0.932590  0.724330  0.275670  1.0  0.9683
  Co  Co9  1  0.677540  0.707460  0.292540  1.0  0.8923
  H  H10  1  0.512100  0.322700  0.058300  1.0  0.0803
  H  H11  1  0.543800  0.682500  0.063700  1.0  0.1147
  H  H12  1  0.352900  0.821800  0.952000  1.0  0.0979
  H  H13  1  0.224200  0.934300  0.682300  1.0  0.0827
  H  H14  1  0.968400  0.034400  0.150800  1.0  0.072
  H  H15  1  0.746700  0.458900  0.348900  1.0  0.1238
  H  H16  1  0.807000  0.196000  0.560800  1.0  0.1194
  H  H17  1  0.839200  0.945000  0.312000  1.0  0.1046
  H  H18  1  0.770900  0.015000  0.886400  1.0  0.0862
  H  H19  1  0.487900  0.058300  0.322700  1.0  0.0801
  H  H20  1  0.334000  0.828900  0.534300  1.0  0.068
  H  H21  1  0.770900  0.113600  0.985000  1.0  0.088
  H  H22  1  0.851200  0.261400  0.738600  1.0  0.0688
  H  H23  1  0.242400  0.750200  0.657400  1.0  0.0722
  H  H24  1  0.647100  0.952000  0.821800  1.0  0.0965
  H  H25  1  0.555600  0.608900  0.188100  1.0  0.0781
  H  H26  1  0.517400  0.494600  0.168000  1.0  0.1144
  H  H27  1  0.334000  0.465700  0.171100  1.0  0.0687
  H  H28  1  0.543800  0.936300  0.317500  1.0  0.1147
  H  H29  1  0.647100  0.178200  0.048000  1.0  0.0977
  H  H30  1  0.911700  0.888300  0.111700  1.0  0.1165
  H  H31  1  0.512100  0.941700  0.677300  1.0  0.0803
  H  H32  1  0.101600  0.720600  0.566800  1.0  0.1159
  H  H33  1  0.839200  0.688000  0.055000  1.0  0.1045
  H  H34  1  0.206000  0.439400  0.655400  1.0  0.0755
  H  H35  1  0.794000  0.560600  0.344600  1.0  0.0761
  H  H36  1  0.775800  0.682300  0.934300  1.0  0.0828
  H  H37  1  0.253300  0.541100  0.651100  1.0  0.124
  H  H38  1  0.154500  0.217900  0.093900  1.0  0.1166
  H  H39  1  0.456200  0.317500  0.936300  1.0  0.1147
  H  H40  1  0.898400  0.566800  0.720600  1.0  0.1153
  H  H41  1  0.517400  0.832000  0.505400  1.0  0.1145
  H  H42  1  0.757600  0.249800  0.342600  1.0  0.0718
  H  H43  1  0.794000  0.655400  0.439400  1.0  0.0728
  H  H44  1  0.229100  0.886400  0.015000  1.0  0.088
  H  H45  1  0.031600  0.965600  0.849200  1.0  0.0712
  H  H46  1  0.757600  0.657400  0.750200  1.0  0.0706
  H  H47  1  0.482600  0.168000  0.494600  1.0  0.1133
  H  H48  1  0.854900  0.827200  0.172800  1.0  0.0691
  H  H49  1  0.968400  0.849200  0.965600  1.0  0.0715
  H  H50  1  0.666000  0.534300  0.828900  1.0  0.069
  H  H51  1  0.160800  0.055000  0.688000  1.0  0.1039
  H  H52  1  0.154500  0.906100  0.782100  1.0  0.1177
  H  H53  1  0.224200  0.317700  0.065700  1.0  0.0825
  H  H54  1  0.229100  0.985000  0.113600  1.0  0.0856
  H  H55  1  0.253300  0.348900  0.458900  1.0  0.1232
  H  H56  1  0.845500  0.782100  0.906100  1.0  0.1166
  H  H57  1  0.555600  0.811900  0.391100  1.0  0.0785
  H  H58  1  0.746700  0.651100  0.541100  1.0  0.1229
  H  H59  1  0.845500  0.093900  0.217900  1.0  0.1182
  H  H60  1  0.221400  0.794900  0.205100  1.0  0.116
  H  H61  1  0.807000  0.439200  0.804000  1.0  0.1193
  H  H62  1  0.088300  0.111700  0.888300  1.0  0.1161
  H  H63  1  0.482600  0.505400  0.832000  1.0  0.1149
  H  H64  1  0.160800  0.312000  0.945000  1.0  0.1056
  H  H65  1  0.456200  0.063700  0.682500  1.0  0.115
  H  H66  1  0.444400  0.391100  0.811900  1.0  0.0789
  H  H67  1  0.487900  0.677300  0.941700  1.0  0.0816
  H  H68  1  0.031600  0.150800  0.034400  1.0  0.0716
  H  H69  1  0.778600  0.205100  0.794900  1.0  0.1171
  H  H70  1  0.193000  0.804000  0.439200  1.0  0.1198
  H  H71  1  0.148800  0.738600  0.261400  1.0  0.0676
  H  H72  1  0.444400  0.188100  0.608900  1.0  0.0781
  H  H73  1  0.101600  0.433200  0.279400  1.0  0.1156
  H  H74  1  0.242400  0.342600  0.249800  1.0  0.071
  H  H75  1  0.193000  0.560800  0.196000  1.0  0.1185
  H  H76  1  0.145100  0.172800  0.827200  1.0  0.0708
  H  H77  1  0.666000  0.171100  0.465700  1.0  0.0687
  H  H78  1  0.898400  0.279400  0.433200  1.0  0.1157
  H  H79  1  0.352900  0.048000  0.178200  1.0  0.0964
  H  H80  1  0.775800  0.065700  0.317700  1.0  0.0828
  H  H81  1  0.206000  0.344600  0.560600  1.0  0.0744
  C  C82  1  0.098400  0.128980  0.062620  1.0  0.1852
  C  C83  1  0.233500  0.387200  0.239000  1.0  0.1613
  C  C84  1  0.431900  0.208500  0.508900  1.0  -0.1293
  C  C85  1  0.559600  0.679650  0.965150  1.0  0.1616
  C  C86  1  0.355400  0.817630  0.819970  1.0  0.7189
  C  C87  1  0.766500  0.612800  0.761000  1.0  0.1608
  C  C88  1  0.286200  0.806800  0.541400  1.0  0.1762
  C  C89  1  0.355400  0.180030  0.182370  1.0  0.7183
  C  C90  1  0.233200  0.033190  0.686210  1.0  -0.1026
  C  C91  1  0.885100  0.112800  0.887200  1.0  0.691
  C  C92  1  0.735900  0.845760  0.304840  1.0  0.7144
  C  C93  1  0.201800  0.791520  0.482880  1.0  -0.1408
  C  C94  1  0.440400  0.320350  0.034850  1.0  0.1621
  C  C95  1  0.706500  0.487000  0.313800  1.0  -0.1619
  C  C96  1  0.698200  0.687050  0.073150  1.0  -0.1119
  C  C97  1  0.854300  0.196900  0.803100  1.0  -0.1497
  C  C98  1  0.594300  0.778700  0.421700  1.0  0.1201
  C  C99  1  0.271400  0.317290  0.039110  1.0  0.1569
  C  C100  1  0.213100  0.032510  0.109290  1.0  0.1496
  C  C101  1  0.288600  0.852040  0.929760  1.0  -0.0899
  C  C102  1  0.271100  0.857210  0.861590  1.0  -0.1486
  C  C103  1  0.145700  0.803100  0.196900  1.0  -0.1485
  C  C104  1  0.926200  0.151200  0.848800  1.0  -0.071
  C  C105  1  0.851800  0.257200  0.441600  1.0  -0.138
  C  C106  1  0.405700  0.421700  0.778700  1.0  0.1191
  C  C107  1  0.288600  0.070240  0.147960  1.0  -0.0944
  C  C108  1  0.798200  0.208480  0.517120  1.0  -0.1397
  C  C109  1  0.851800  0.558400  0.742800  1.0  -0.1386
  C  C110  1  0.828700  0.829720  0.901280  1.0  -0.1656
  C  C111  1  0.431900  0.491100  0.791500  1.0  -0.1322
  C  C112  1  0.568100  0.791500  0.491100  1.0  -0.1314
  C  C113  1  0.828700  0.098720  0.170280  1.0  -0.1635
  C  C114  1  0.728600  0.682710  0.960890  1.0  0.1571
  C  C115  1  0.590100  0.398800  0.251400  1.0  0.7144
  C  C116  1  0.867100  0.242400  0.507400  1.0  -0.109
  C  C117  1  0.786900  0.109290  0.032510  1.0  0.1485
  C  C118  1  0.407600  0.038600  0.683000  1.0  -0.1377
  C  C119  1  0.132900  0.507400  0.242400  1.0  -0.1093
  C  C120  1  0.271300  0.447800  0.686000  1.0  0.172
  C  C121  1  0.440400  0.965150  0.679650  1.0  0.1621
  C  C122  1  0.728900  0.861590  0.857210  1.0  -0.1482
  C  C123  1  0.264100  0.304840  0.845760  1.0  0.7394
  C  C124  1  0.376600  0.532400  0.740200  1.0  -0.1098
  C  C125  1  0.568100  0.508900  0.208500  1.0  -0.1323
  C  C126  1  0.900300  0.230600  0.769400  1.0  0.1887
  C  C127  1  0.301800  0.073150  0.687050  1.0  -0.0989
  C  C128  1  0.405700  0.221300  0.578300  1.0  0.1202
  C  C129  1  0.590100  0.748600  0.601200  1.0  0.7147
  C  C130  1  0.099700  0.769400  0.230600  1.0  0.1902
  C  C131  1  0.293500  0.513000  0.686200  1.0  -0.1622
  C  C132  1  0.735900  0.695160  0.154240  1.0  0.7406
  C  C133  1  0.041600  0.737700  0.430100  1.0  0.7243
  C  C134  1  0.286200  0.458600  0.193200  1.0  0.1778
  C  C135  1  0.698200  0.926850  0.312950  1.0  -0.0971
  C  C136  1  0.766500  0.239000  0.387200  1.0  0.1616
  C  C137  1  0.929900  0.820800  0.179200  1.0  0.1492
  C  C138  1  0.592400  0.961400  0.317000  1.0  -0.1384
  C  C139  1  0.728600  0.039110  0.317290  1.0  0.1544
  C  C140  1  0.409900  0.251400  0.398800  1.0  0.7139
  C  C141  1  0.233500  0.761000  0.612800  1.0  0.1621
  C  C142  1  0.623400  0.740200  0.532400  1.0  -0.1101
  C  C143  1  0.644600  0.819970  0.817630  1.0  0.717
  C  C144  1  0.407600  0.317000  0.961400  1.0  -0.1421
  C  C145  1  0.201800  0.517120  0.208480  1.0  -0.1355
  C  C146  1  0.766800  0.686210  0.033190  1.0  -0.1007
  C  C147  1  0.728700  0.686000  0.447800  1.0  0.1711
  C  C148  1  0.171300  0.901280  0.829720  1.0  -0.1654
  C  C149  1  0.594300  0.578300  0.221300  1.0  0.1176
  C  C150  1  0.098400  0.937380  0.871020  1.0  0.1851
  C  C151  1  0.070100  0.179200  0.820800  1.0  0.1479
  C  C152  1  0.958400  0.430100  0.737700  1.0  0.7253
  C  C153  1  0.786900  0.967490  0.890710  1.0  0.151
  C  C154  1  0.963200  0.858000  0.142000  1.0  -0.1607
  C  C155  1  0.901600  0.062620  0.128980  1.0  0.1843
  C  C156  1  0.644600  0.182370  0.180030  1.0  0.7165
  C  C157  1  0.114900  0.887200  0.112800  1.0  0.6899
  C  C158  1  0.293500  0.313800  0.487000  1.0  -0.1688
  C  C159  1  0.036800  0.142000  0.858000  1.0  -0.1619
  C  C160  1  0.901600  0.871020  0.937380  1.0  0.1844
  C  C161  1  0.592400  0.683000  0.038600  1.0  -0.1375
  C  C162  1  0.766800  0.966810  0.313790  1.0  -0.1028
  C  C163  1  0.041600  0.569900  0.262300  1.0  0.7267
  C  C164  1  0.711400  0.929760  0.852040  1.0  -0.0896
  C  C165  1  0.271400  0.960890  0.682710  1.0  0.1536
  C  C166  1  0.271100  0.138410  0.142790  1.0  -0.1485
  C  C167  1  0.271300  0.314000  0.552200  1.0  0.1718
  C  C168  1  0.867100  0.492600  0.757600  1.0  -0.1083
  C  C169  1  0.728700  0.552200  0.314000  1.0  0.1701
  C  C170  1  0.301800  0.312950  0.926850  1.0  -0.1123
  C  C171  1  0.623400  0.467600  0.259800  1.0  -0.1101
  C  C172  1  0.798200  0.482880  0.791520  1.0  -0.135
  C  C173  1  0.233200  0.313790  0.966810  1.0  -0.1098
  C  C174  1  0.728900  0.142790  0.138410  1.0  -0.1492
  C  C175  1  0.559600  0.034850  0.320350  1.0  0.1613
  C  C176  1  0.711400  0.147960  0.070240  1.0  -0.093
  C  C177  1  0.073800  0.848800  0.151200  1.0  -0.0704
  C  C178  1  0.213100  0.890710  0.967490  1.0  0.1497
  C  C179  1  0.376600  0.259800  0.467600  1.0  -0.1087
  C  C180  1  0.148200  0.742800  0.558400  1.0  -0.1418
  C  C181  1  0.958400  0.262300  0.569900  1.0  0.7235
  C  C182  1  0.713800  0.193200  0.458600  1.0  0.1767
  C  C183  1  0.409900  0.601200  0.748600  1.0  0.7126
  C  C184  1  0.171300  0.170280  0.098720  1.0  -0.1646
  C  C185  1  0.706500  0.686200  0.513000  1.0  -0.1688
  C  C186  1  0.132900  0.757600  0.492600  1.0  -0.1091
  C  C187  1  0.148200  0.441600  0.257200  1.0  -0.144
  C  C188  1  0.264100  0.154240  0.695160  1.0  0.7166
  C  C189  1  0.713800  0.541400  0.806800  1.0  0.1784
  N  N190  1  0.999100  0.776690  0.223310  1.0  -0.2977
  N  N191  1  0.669200  0.600200  0.276800  1.0  -0.2523
  N  N192  1  0.625400  0.679710  0.927810  1.0  -0.3285
  N  N193  1  0.303800  0.394320  0.207120  1.0  -0.3243
  N  N194  1  0.669200  0.723200  0.399800  1.0  -0.2463
  N  N195  1  0.625400  0.072190  0.320290  1.0  -0.3302
  N  N196  1  0.330800  0.276800  0.600200  1.0  -0.2456
  N  N197  1  0.303800  0.792880  0.605680  1.0  -0.3237
  N  N198  1  0.000900  0.223310  0.776690  1.0  -0.2992
  N  N199  1  0.374600  0.927810  0.679710  1.0  -0.3294
  N  N200  1  0.330800  0.399800  0.723200  1.0  -0.2502
  N  N201  1  0.116700  0.934640  0.938880  1.0  -0.3362
  N  N202  1  0.883300  0.938880  0.934640  1.0  -0.3297
  N  N203  1  0.696200  0.605680  0.792880  1.0  -0.3259
  N  N204  1  0.116700  0.061120  0.065360  1.0  -0.3299
  N  N205  1  0.696200  0.207120  0.394320  1.0  -0.3246
  N  N206  1  0.883300  0.065360  0.061120  1.0  -0.336
  N  N207  1  0.374600  0.320290  0.072190  1.0  -0.3277
  O  O208  1  0.336000  0.833620  0.758740  1.0  -0.6245
  O  O209  1  0.955900  0.072010  0.927990  1.0  -0.6235
  O  O210  1  0.500000  0.708560  0.708560  1.0  -0.4909
  O  O211  1  0.528700  0.799990  0.619610  1.0  -0.5721
  O  O212  1  0.528700  0.380390  0.200010  1.0  -0.5687
  O  O213  1  0.624600  0.692730  0.629070  1.0  -0.5025
  O  O214  1  0.831100  0.820990  0.298370  1.0  -0.6074
  O  O215  1  0.671300  0.693960  0.186460  1.0  -0.5958
  O  O216  1  0.956200  0.371720  0.744500  1.0  -0.5739
  O  O217  1  0.956200  0.255500  0.628280  1.0  -0.5732
  O  O218  1  0.624600  0.370930  0.307270  1.0  -0.4947
  O  O219  1  0.043800  0.744500  0.371720  1.0  -0.5723
  O  O220  1  0.328700  0.306040  0.813540  1.0  -0.5964
  O  O221  1  0.375400  0.629070  0.692730  1.0  -0.494
  O  O222  1  0.664000  0.758740  0.833620  1.0  -0.6246
  O  O223  1  0.500000  0.291440  0.291440  1.0  -0.4883
  O  O224  1  0.436300  0.151400  0.226040  1.0  -0.6001
  O  O225  1  0.336000  0.241260  0.166380  1.0  -0.6243
  O  O226  1  0.025500  0.285900  0.555500  1.0  -0.5221
  O  O227  1  0.168900  0.179010  0.701630  1.0  -0.6067
  O  O228  1  0.044100  0.927990  0.072010  1.0  -0.6215
  O  O229  1  0.563700  0.848600  0.773960  1.0  -0.5995
  O  O230  1  0.025500  0.444500  0.714100  1.0  -0.5239
  O  O231  1  0.831100  0.701630  0.179010  1.0  -0.6175
  O  O232  1  0.974500  0.555500  0.285900  1.0  -0.526
  O  O233  1  0.784600  0.122970  0.877030  1.0  -0.5397
  O  O234  1  0.436300  0.773960  0.848600  1.0  -0.5994
  O  O235  1  0.471300  0.619610  0.799990  1.0  -0.5692
  O  O236  1  0.664000  0.166380  0.241260  1.0  -0.6262
  O  O237  1  0.563700  0.226040  0.151400  1.0  -0.5981
  O  O238  1  0.168900  0.298370  0.820990  1.0  -0.6163
  O  O239  1  0.043800  0.628280  0.255500  1.0  -0.5734
  O  O240  1  0.471300  0.200010  0.380390  1.0  -0.5698
  O  O241  1  0.328700  0.186460  0.693960  1.0  -0.5989
  O  O242  1  0.671300  0.813540  0.306040  1.0  -0.6
  O  O243  1  0.974500  0.714100  0.444500  1.0  -0.5219
  O  O244  1  0.375400  0.307270  0.370930  1.0  -0.502
  O  O245  1  0.215400  0.877030  0.122970  1.0  -0.5408
