# generated using pymatgen
data_Zn7H30(C13O4)6
_symmetry_space_group_name_H-M   'P 1'
_cell_length_a   32.36600000
_cell_length_b   32.36600000
_cell_length_c   32.36600000
_cell_angle_alpha   90.00000000
_cell_angle_beta   90.00000000
_cell_angle_gamma   90.00000000
_symmetry_Int_Tables_number   1
_chemical_formula_structural   Zn7H30(C13O4)6
_chemical_formula_sum   'Zn28 H120 C312 O96'
_cell_volume   33905.26080390
_cell_formula_units_Z   4
loop_
 _symmetry_equiv_pos_site_id
 _symmetry_equiv_pos_as_xyz
  1  'x, y, z'
loop_
 _atom_site_type_symbol
 _atom_site_label
 _atom_site_symmetry_multiplicity
 _atom_site_fract_x
 _atom_site_fract_y
 _atom_site_fract_z
 _atom_site_occupancy
 _atom_site_charge
  Zn  Zn1  1  0.285300  0.285300  0.285300  1.0  0.8413
  Zn  Zn2  1  0.349270  0.349270  0.349270  1.0  0.7688
  Zn  Zn3  1  0.714700  0.714700  0.285300  1.0  0.8404
  Zn  Zn4  1  0.650730  0.650730  0.349270  1.0  0.7669
  Zn  Zn5  1  0.714700  0.285300  0.714700  1.0  0.84
  Zn  Zn6  1  0.650730  0.349270  0.650730  1.0  0.7675
  Zn  Zn7  1  0.285300  0.714700  0.714700  1.0  0.839
  Zn  Zn8  1  0.349270  0.650730  0.650730  1.0  0.7691
  Zn  Zn9  1  0.285300  0.285300  0.714700  1.0  0.8387
  Zn  Zn10  1  0.349270  0.349270  0.650730  1.0  0.7681
  Zn  Zn11  1  0.714700  0.714700  0.714700  1.0  0.8399
  Zn  Zn12  1  0.650730  0.650730  0.650730  1.0  0.768
  Zn  Zn13  1  0.285300  0.714700  0.285300  1.0  0.8396
  Zn  Zn14  1  0.349270  0.650730  0.349270  1.0  0.7679
  Zn  Zn15  1  0.714700  0.285300  0.285300  1.0  0.8425
  Zn  Zn16  1  0.650730  0.349270  0.349270  1.0  0.768
  Zn  Zn17  1  0.500000  0.138900  0.500000  1.0  1.132
  Zn  Zn18  1  0.500000  0.230100  0.500000  1.0  1.0884
  Zn  Zn19  1  0.500000  0.861100  0.500000  1.0  1.131
  Zn  Zn20  1  0.500000  0.769900  0.500000  1.0  1.0913
  Zn  Zn21  1  0.500000  0.500000  0.138900  1.0  1.1271
  Zn  Zn22  1  0.500000  0.500000  0.230100  1.0  1.0856
  Zn  Zn23  1  0.500000  0.500000  0.861100  1.0  1.1247
  Zn  Zn24  1  0.500000  0.500000  0.769900  1.0  1.0843
  Zn  Zn25  1  0.138900  0.500000  0.500000  1.0  1.1326
  Zn  Zn26  1  0.230100  0.500000  0.500000  1.0  1.0897
  Zn  Zn27  1  0.861100  0.500000  0.500000  1.0  1.1336
  Zn  Zn28  1  0.769900  0.500000  0.500000  1.0  1.0896
  H  H29  1  0.407000  0.247400  0.407000  1.0  0.1239
  H  H30  1  0.408100  0.123200  0.408100  1.0  0.129
  H  H31  1  0.331600  0.184000  0.331600  1.0  0.1365
  H  H32  1  0.285500  0.062300  0.285500  1.0  0.1327
  H  H33  1  0.593000  0.752600  0.407000  1.0  0.124
  H  H34  1  0.591900  0.876800  0.408100  1.0  0.1293
  H  H35  1  0.668400  0.816000  0.331600  1.0  0.137
  H  H36  1  0.714500  0.937700  0.285500  1.0  0.1325
  H  H37  1  0.593000  0.247400  0.593000  1.0  0.124
  H  H38  1  0.591900  0.123200  0.591900  1.0  0.1292
  H  H39  1  0.668400  0.184000  0.668400  1.0  0.1369
  H  H40  1  0.714500  0.062300  0.714500  1.0  0.133
  H  H41  1  0.407000  0.752600  0.593000  1.0  0.1237
  H  H42  1  0.408100  0.876800  0.591900  1.0  0.1295
  H  H43  1  0.331600  0.816000  0.668400  1.0  0.137
  H  H44  1  0.285500  0.937700  0.714500  1.0  0.1327
  H  H45  1  0.407000  0.407000  0.247400  1.0  0.1237
  H  H46  1  0.408100  0.408100  0.123200  1.0  0.1295
  H  H47  1  0.331600  0.331600  0.184000  1.0  0.136
  H  H48  1  0.285500  0.285500  0.062300  1.0  0.131
  H  H49  1  0.407000  0.593000  0.752600  1.0  0.1228
  H  H50  1  0.408100  0.591900  0.876800  1.0  0.129
  H  H51  1  0.331600  0.668400  0.816000  1.0  0.1368
  H  H52  1  0.285500  0.714500  0.937700  1.0  0.13
  H  H53  1  0.593000  0.593000  0.247400  1.0  0.1233
  H  H54  1  0.591900  0.591900  0.123200  1.0  0.1294
  H  H55  1  0.668400  0.668400  0.184000  1.0  0.1372
  H  H56  1  0.714500  0.714500  0.062300  1.0  0.1311
  H  H57  1  0.593000  0.407000  0.752600  1.0  0.1231
  H  H58  1  0.591900  0.408100  0.876800  1.0  0.1285
  H  H59  1  0.668400  0.331600  0.816000  1.0  0.136
  H  H60  1  0.714500  0.285500  0.937700  1.0  0.1305
  H  H61  1  0.247400  0.407000  0.407000  1.0  0.1228
  H  H62  1  0.123200  0.408100  0.408100  1.0  0.1295
  H  H63  1  0.184000  0.331600  0.331600  1.0  0.1366
  H  H64  1  0.062300  0.285500  0.285500  1.0  0.1314
  H  H65  1  0.752600  0.407000  0.593000  1.0  0.1223
  H  H66  1  0.876800  0.408100  0.591900  1.0  0.1301
  H  H67  1  0.816000  0.331600  0.668400  1.0  0.1366
  H  H68  1  0.937700  0.285500  0.714500  1.0  0.1323
  H  H69  1  0.247400  0.593000  0.593000  1.0  0.1223
  H  H70  1  0.123200  0.591900  0.591900  1.0  0.1303
  H  H71  1  0.184000  0.668400  0.668400  1.0  0.1373
  H  H72  1  0.062300  0.714500  0.714500  1.0  0.1324
  H  H73  1  0.752600  0.593000  0.407000  1.0  0.1219
  H  H74  1  0.876800  0.591900  0.408100  1.0  0.1306
  H  H75  1  0.816000  0.668400  0.331600  1.0  0.1365
  H  H76  1  0.937700  0.714500  0.285500  1.0  0.1317
  H  H77  1  0.247400  0.407000  0.593000  1.0  0.123
  H  H78  1  0.123200  0.408100  0.591900  1.0  0.1299
  H  H79  1  0.184000  0.331600  0.668400  1.0  0.1369
  H  H80  1  0.062300  0.285500  0.714500  1.0  0.1323
  H  H81  1  0.752600  0.593000  0.593000  1.0  0.1219
  H  H82  1  0.876800  0.591900  0.591900  1.0  0.1304
  H  H83  1  0.816000  0.668400  0.668400  1.0  0.1373
  H  H84  1  0.937700  0.714500  0.714500  1.0  0.1319
  H  H85  1  0.247400  0.593000  0.407000  1.0  0.1226
  H  H86  1  0.123200  0.591900  0.408100  1.0  0.1302
  H  H87  1  0.184000  0.668400  0.331600  1.0  0.1367
  H  H88  1  0.062300  0.714500  0.285500  1.0  0.1317
  H  H89  1  0.752600  0.407000  0.407000  1.0  0.1218
  H  H90  1  0.876800  0.408100  0.408100  1.0  0.13
  H  H91  1  0.816000  0.331600  0.331600  1.0  0.1362
  H  H92  1  0.937700  0.285500  0.285500  1.0  0.1319
  H  H93  1  0.407000  0.407000  0.752600  1.0  0.1234
  H  H94  1  0.408100  0.408100  0.876800  1.0  0.1286
  H  H95  1  0.331600  0.331600  0.816000  1.0  0.1361
  H  H96  1  0.285500  0.285500  0.937700  1.0  0.13
  H  H97  1  0.593000  0.407000  0.247400  1.0  0.1238
  H  H98  1  0.591900  0.408100  0.123200  1.0  0.1289
  H  H99  1  0.668400  0.331600  0.184000  1.0  0.1364
  H  H100  1  0.714500  0.285500  0.062300  1.0  0.131
  H  H101  1  0.593000  0.593000  0.752600  1.0  0.1227
  H  H102  1  0.591900  0.591900  0.876800  1.0  0.1291
  H  H103  1  0.668400  0.668400  0.816000  1.0  0.1364
  H  H104  1  0.714500  0.714500  0.937700  1.0  0.1306
  H  H105  1  0.407000  0.593000  0.247400  1.0  0.1232
  H  H106  1  0.408100  0.591900  0.123200  1.0  0.1298
  H  H107  1  0.331600  0.668400  0.184000  1.0  0.1372
  H  H108  1  0.285500  0.714500  0.062300  1.0  0.1308
  H  H109  1  0.407000  0.247400  0.593000  1.0  0.1239
  H  H110  1  0.408100  0.123200  0.591900  1.0  0.1292
  H  H111  1  0.331600  0.184000  0.668400  1.0  0.1368
  H  H112  1  0.285500  0.062300  0.714500  1.0  0.1327
  H  H113  1  0.407000  0.752600  0.407000  1.0  0.1238
  H  H114  1  0.408100  0.876800  0.408100  1.0  0.1294
  H  H115  1  0.331600  0.816000  0.331600  1.0  0.1369
  H  H116  1  0.285500  0.937700  0.285500  1.0  0.1321
  H  H117  1  0.593000  0.247400  0.407000  1.0  0.1239
  H  H118  1  0.591900  0.123200  0.408100  1.0  0.1289
  H  H119  1  0.668400  0.184000  0.331600  1.0  0.1367
  H  H120  1  0.714500  0.062300  0.285500  1.0  0.1329
  H  H121  1  0.593000  0.752600  0.593000  1.0  0.1239
  H  H122  1  0.591900  0.876800  0.591900  1.0  0.1294
  H  H123  1  0.668400  0.816000  0.668400  1.0  0.1372
  H  H124  1  0.714500  0.937700  0.714500  1.0  0.1329
  H  H125  1  0.361800  0.000000  0.361800  1.0  0.1301
  H  H126  1  0.259800  0.000000  0.259800  1.0  0.1128
  H  H127  1  0.638200  0.000000  0.361800  1.0  0.1302
  H  H128  1  0.740200  0.000000  0.259800  1.0  0.1138
  H  H129  1  0.638200  0.000000  0.638200  1.0  0.1299
  H  H130  1  0.740200  0.000000  0.740200  1.0  0.1134
  H  H131  1  0.361800  0.000000  0.638200  1.0  0.1301
  H  H132  1  0.259800  0.000000  0.740200  1.0  0.1131
  H  H133  1  0.361800  0.361800  0.000000  1.0  0.1294
  H  H134  1  0.259800  0.259800  0.000000  1.0  0.114
  H  H135  1  0.361800  0.638200  0.000000  1.0  0.1297
  H  H136  1  0.259800  0.740200  0.000000  1.0  0.1138
  H  H137  1  0.638200  0.638200  0.000000  1.0  0.1296
  H  H138  1  0.740200  0.740200  0.000000  1.0  0.1142
  H  H139  1  0.638200  0.361800  0.000000  1.0  0.1293
  H  H140  1  0.740200  0.259800  0.000000  1.0  0.1148
  H  H141  1  0.000000  0.361800  0.361800  1.0  0.1281
  H  H142  1  0.000000  0.259800  0.259800  1.0  0.114
  H  H143  1  0.000000  0.361800  0.638200  1.0  0.1284
  H  H144  1  0.000000  0.259800  0.740200  1.0  0.1141
  H  H145  1  0.000000  0.638200  0.638200  1.0  0.1286
  H  H146  1  0.000000  0.740200  0.740200  1.0  0.1133
  H  H147  1  0.000000  0.638200  0.361800  1.0  0.129
  H  H148  1  0.000000  0.740200  0.259800  1.0  0.1139
  C  C149  1  0.366700  0.221800  0.366700  1.0  -0.1488
  C  C150  1  0.397100  0.222300  0.397100  1.0  0.0435
  C  C151  1  0.412600  0.185400  0.412600  1.0  -0.1705
  C  C152  1  0.397800  0.147900  0.397800  1.0  -0.0485
  C  C153  1  0.367400  0.147400  0.367400  1.0  0.0921
  C  C154  1  0.351900  0.184300  0.351900  1.0  -0.0711
  C  C155  1  0.347800  0.259300  0.347800  1.0  0.7228
  C  C156  1  0.445000  0.183800  0.445000  1.0  0.7035
  C  C157  1  0.352000  0.108700  0.352000  1.0  -0.1495
  C  C158  1  0.340800  0.075700  0.340800  1.0  -0.1457
  C  C159  1  0.325900  0.036700  0.325900  1.0  0.0596
  C  C160  1  0.295500  0.037300  0.295500  1.0  -0.1288
  C  C161  1  0.633300  0.778200  0.366700  1.0  -0.1484
  C  C162  1  0.602900  0.777700  0.397100  1.0  0.0433
  C  C163  1  0.587400  0.814600  0.412600  1.0  -0.1709
  C  C164  1  0.602200  0.852100  0.397800  1.0  -0.0485
  C  C165  1  0.632600  0.852600  0.367400  1.0  0.0942
  C  C166  1  0.648100  0.815700  0.351900  1.0  -0.0711
  C  C167  1  0.652200  0.740700  0.347800  1.0  0.7231
  C  C168  1  0.555000  0.816200  0.445000  1.0  0.7036
  C  C169  1  0.648000  0.891300  0.352000  1.0  -0.1505
  C  C170  1  0.659200  0.924300  0.340800  1.0  -0.1456
  C  C171  1  0.674100  0.963300  0.325900  1.0  0.0589
  C  C172  1  0.704500  0.962700  0.295500  1.0  -0.1267
  C  C173  1  0.633300  0.221800  0.633300  1.0  -0.1483
  C  C174  1  0.602900  0.222300  0.602900  1.0  0.0437
  C  C175  1  0.587400  0.185400  0.587400  1.0  -0.1715
  C  C176  1  0.602200  0.147900  0.602200  1.0  -0.0488
  C  C177  1  0.632600  0.147400  0.632600  1.0  0.0941
  C  C178  1  0.648100  0.184300  0.648100  1.0  -0.0701
  C  C179  1  0.652200  0.259300  0.652200  1.0  0.7226
  C  C180  1  0.555000  0.183800  0.555000  1.0  0.7039
  C  C181  1  0.648000  0.108700  0.648000  1.0  -0.149
  C  C182  1  0.659200  0.075700  0.659200  1.0  -0.1461
  C  C183  1  0.674100  0.036700  0.674100  1.0  0.0584
  C  C184  1  0.704500  0.037300  0.704500  1.0  -0.1266
  C  C185  1  0.366700  0.778200  0.633300  1.0  -0.1491
  C  C186  1  0.397100  0.777700  0.602900  1.0  0.0432
  C  C187  1  0.412600  0.814600  0.587400  1.0  -0.1707
  C  C188  1  0.397800  0.852100  0.602200  1.0  -0.0478
  C  C189  1  0.367400  0.852600  0.632600  1.0  0.0918
  C  C190  1  0.351900  0.815700  0.648100  1.0  -0.0707
  C  C191  1  0.347800  0.740700  0.652200  1.0  0.723
  C  C192  1  0.445000  0.816200  0.555000  1.0  0.7038
  C  C193  1  0.352000  0.891300  0.648000  1.0  -0.1506
  C  C194  1  0.340800  0.924300  0.659200  1.0  -0.1464
  C  C195  1  0.325900  0.963300  0.674100  1.0  0.0585
  C  C196  1  0.295500  0.962700  0.704500  1.0  -0.1266
  C  C197  1  0.366700  0.366700  0.221800  1.0  -0.1512
  C  C198  1  0.397100  0.397100  0.222300  1.0  0.0408
  C  C199  1  0.412600  0.412600  0.185400  1.0  -0.1705
  C  C200  1  0.397800  0.397800  0.147900  1.0  -0.0488
  C  C201  1  0.367400  0.367400  0.147400  1.0  0.0917
  C  C202  1  0.351900  0.351900  0.184300  1.0  -0.0729
  C  C203  1  0.347800  0.347800  0.259300  1.0  0.7246
  C  C204  1  0.445000  0.445000  0.183800  1.0  0.7036
  C  C205  1  0.352000  0.352000  0.108700  1.0  -0.1527
  C  C206  1  0.340800  0.340800  0.075700  1.0  -0.1456
  C  C207  1  0.325900  0.325900  0.036700  1.0  0.0575
  C  C208  1  0.295500  0.295500  0.037300  1.0  -0.1232
  C  C209  1  0.366700  0.633300  0.778200  1.0  -0.1509
  C  C210  1  0.397100  0.602900  0.777700  1.0  0.0418
  C  C211  1  0.412600  0.587400  0.814600  1.0  -0.1703
  C  C212  1  0.397800  0.602200  0.852100  1.0  -0.0482
  C  C213  1  0.367400  0.632600  0.852600  1.0  0.0909
  C  C214  1  0.351900  0.648100  0.815700  1.0  -0.0737
  C  C215  1  0.347800  0.652200  0.740700  1.0  0.7259
  C  C216  1  0.445000  0.555000  0.816200  1.0  0.703
  C  C217  1  0.352000  0.648000  0.891300  1.0  -0.1507
  C  C218  1  0.340800  0.659200  0.924300  1.0  -0.1485
  C  C219  1  0.325900  0.674100  0.963300  1.0  0.0583
  C  C220  1  0.295500  0.704500  0.962700  1.0  -0.1234
  C  C221  1  0.633300  0.633300  0.221800  1.0  -0.1507
  C  C222  1  0.602900  0.602900  0.222300  1.0  0.0412
  C  C223  1  0.587400  0.587400  0.185400  1.0  -0.171
  C  C224  1  0.602200  0.602200  0.147900  1.0  -0.0483
  C  C225  1  0.632600  0.632600  0.147400  1.0  0.0943
  C  C226  1  0.648100  0.648100  0.184300  1.0  -0.0729
  C  C227  1  0.652200  0.652200  0.259300  1.0  0.7246
  C  C228  1  0.555000  0.555000  0.183800  1.0  0.7031
  C  C229  1  0.648000  0.648000  0.108700  1.0  -0.1528
  C  C230  1  0.659200  0.659200  0.075700  1.0  -0.1458
  C  C231  1  0.674100  0.674100  0.036700  1.0  0.0577
  C  C232  1  0.704500  0.704500  0.037300  1.0  -0.1231
  C  C233  1  0.633300  0.366700  0.778200  1.0  -0.1502
  C  C234  1  0.602900  0.397100  0.777700  1.0  0.0416
  C  C235  1  0.587400  0.412600  0.814600  1.0  -0.1711
  C  C236  1  0.602200  0.397800  0.852100  1.0  -0.0499
  C  C237  1  0.632600  0.367400  0.852600  1.0  0.0929
  C  C238  1  0.648100  0.351900  0.815700  1.0  -0.0726
  C  C239  1  0.652200  0.347800  0.740700  1.0  0.7254
  C  C240  1  0.555000  0.445000  0.816200  1.0  0.7036
  C  C241  1  0.648000  0.352000  0.891300  1.0  -0.1506
  C  C242  1  0.659200  0.340800  0.924300  1.0  -0.1479
  C  C243  1  0.674100  0.325900  0.963300  1.0  0.0572
  C  C244  1  0.704500  0.295500  0.962700  1.0  -0.1235
  C  C245  1  0.221800  0.366700  0.366700  1.0  -0.1484
  C  C246  1  0.222300  0.397100  0.397100  1.0  0.042
  C  C247  1  0.185400  0.412600  0.412600  1.0  -0.1706
  C  C248  1  0.147900  0.397800  0.397800  1.0  -0.049
  C  C249  1  0.147400  0.367400  0.367400  1.0  0.0909
  C  C250  1  0.184300  0.351900  0.351900  1.0  -0.0724
  C  C251  1  0.259300  0.347800  0.347800  1.0  0.7231
  C  C252  1  0.183800  0.445000  0.445000  1.0  0.7039
  C  C253  1  0.108700  0.352000  0.352000  1.0  -0.1524
  C  C254  1  0.075700  0.340800  0.340800  1.0  -0.1443
  C  C255  1  0.036700  0.325900  0.325900  1.0  0.0602
  C  C256  1  0.037300  0.295500  0.295500  1.0  -0.1249
  C  C257  1  0.778200  0.366700  0.633300  1.0  -0.1487
  C  C258  1  0.777700  0.397100  0.602900  1.0  0.0418
  C  C259  1  0.814600  0.412600  0.587400  1.0  -0.1712
  C  C260  1  0.852100  0.397800  0.602200  1.0  -0.0493
  C  C261  1  0.852600  0.367400  0.632600  1.0  0.0924
  C  C262  1  0.815700  0.351900  0.648100  1.0  -0.0708
  C  C263  1  0.740700  0.347800  0.652200  1.0  0.723
  C  C264  1  0.816200  0.445000  0.555000  1.0  0.7043
  C  C265  1  0.891300  0.352000  0.648000  1.0  -0.1513
  C  C266  1  0.924300  0.340800  0.659200  1.0  -0.1481
  C  C267  1  0.963300  0.325900  0.674100  1.0  0.0576
  C  C268  1  0.962700  0.295500  0.704500  1.0  -0.1244
  C  C269  1  0.221800  0.633300  0.633300  1.0  -0.1487
  C  C270  1  0.222300  0.602900  0.602900  1.0  0.0425
  C  C271  1  0.185400  0.587400  0.587400  1.0  -0.171
  C  C272  1  0.147900  0.602200  0.602200  1.0  -0.0488
  C  C273  1  0.147400  0.632600  0.632600  1.0  0.0913
  C  C274  1  0.184300  0.648100  0.648100  1.0  -0.0726
  C  C275  1  0.259300  0.652200  0.652200  1.0  0.7235
  C  C276  1  0.183800  0.555000  0.555000  1.0  0.7036
  C  C277  1  0.108700  0.648000  0.648000  1.0  -0.1519
  C  C278  1  0.075700  0.659200  0.659200  1.0  -0.1452
  C  C279  1  0.036700  0.674100  0.674100  1.0  0.06
  C  C280  1  0.037300  0.704500  0.704500  1.0  -0.1244
  C  C281  1  0.778200  0.633300  0.366700  1.0  -0.1487
  C  C282  1  0.777700  0.602900  0.397100  1.0  0.0422
  C  C283  1  0.814600  0.587400  0.412600  1.0  -0.1707
  C  C284  1  0.852100  0.602200  0.397800  1.0  -0.0485
  C  C285  1  0.852600  0.632600  0.367400  1.0  0.0935
  C  C286  1  0.815700  0.648100  0.351900  1.0  -0.0726
  C  C287  1  0.740700  0.652200  0.347800  1.0  0.7235
  C  C288  1  0.816200  0.555000  0.445000  1.0  0.7035
  C  C289  1  0.891300  0.648000  0.352000  1.0  -0.1518
  C  C290  1  0.924300  0.659200  0.340800  1.0  -0.1477
  C  C291  1  0.963300  0.674100  0.325900  1.0  0.0585
  C  C292  1  0.962700  0.704500  0.295500  1.0  -0.126
  C  C293  1  0.221800  0.366700  0.633300  1.0  -0.1486
  C  C294  1  0.222300  0.397100  0.602900  1.0  0.0422
  C  C295  1  0.185400  0.412600  0.587400  1.0  -0.171
  C  C296  1  0.147900  0.397800  0.602200  1.0  -0.0491
  C  C297  1  0.147400  0.367400  0.632600  1.0  0.0908
  C  C298  1  0.184300  0.351900  0.648100  1.0  -0.0713
  C  C299  1  0.259300  0.347800  0.652200  1.0  0.7231
  C  C300  1  0.183800  0.445000  0.555000  1.0  0.7042
  C  C301  1  0.108700  0.352000  0.648000  1.0  -0.1519
  C  C302  1  0.075700  0.340800  0.659200  1.0  -0.1449
  C  C303  1  0.036700  0.325900  0.674100  1.0  0.0595
  C  C304  1  0.037300  0.295500  0.704500  1.0  -0.1236
  C  C305  1  0.778200  0.633300  0.633300  1.0  -0.1488
  C  C306  1  0.777700  0.602900  0.602900  1.0  0.0421
  C  C307  1  0.814600  0.587400  0.587400  1.0  -0.1711
  C  C308  1  0.852100  0.602200  0.602200  1.0  -0.0485
  C  C309  1  0.852600  0.632600  0.632600  1.0  0.093
  C  C310  1  0.815700  0.648100  0.648100  1.0  -0.0717
  C  C311  1  0.740700  0.652200  0.652200  1.0  0.7234
  C  C312  1  0.816200  0.555000  0.555000  1.0  0.7037
  C  C313  1  0.891300  0.648000  0.648000  1.0  -0.1513
  C  C314  1  0.924300  0.659200  0.659200  1.0  -0.1484
  C  C315  1  0.963300  0.674100  0.674100  1.0  0.0578
  C  C316  1  0.962700  0.704500  0.704500  1.0  -0.1253
  C  C317  1  0.221800  0.633300  0.366700  1.0  -0.1485
  C  C318  1  0.222300  0.602900  0.397100  1.0  0.0425
  C  C319  1  0.185400  0.587400  0.412600  1.0  -0.1705
  C  C320  1  0.147900  0.602200  0.397800  1.0  -0.0486
  C  C321  1  0.147400  0.632600  0.367400  1.0  0.0916
  C  C322  1  0.184300  0.648100  0.351900  1.0  -0.0732
  C  C323  1  0.259300  0.652200  0.347800  1.0  0.7235
  C  C324  1  0.183800  0.555000  0.445000  1.0  0.7034
  C  C325  1  0.108700  0.648000  0.352000  1.0  -0.1525
  C  C326  1  0.075700  0.659200  0.340800  1.0  -0.1446
  C  C327  1  0.036700  0.674100  0.325900  1.0  0.0611
  C  C328  1  0.037300  0.704500  0.295500  1.0  -0.1251
  C  C329  1  0.778200  0.366700  0.366700  1.0  -0.1487
  C  C330  1  0.777700  0.397100  0.397100  1.0  0.0416
  C  C331  1  0.814600  0.412600  0.412600  1.0  -0.1709
  C  C332  1  0.852100  0.397800  0.397800  1.0  -0.0492
  C  C333  1  0.852600  0.367400  0.367400  1.0  0.0927
  C  C334  1  0.815700  0.351900  0.351900  1.0  -0.072
  C  C335  1  0.740700  0.347800  0.347800  1.0  0.7232
  C  C336  1  0.816200  0.445000  0.445000  1.0  0.704
  C  C337  1  0.891300  0.352000  0.352000  1.0  -0.1518
  C  C338  1  0.924300  0.340800  0.340800  1.0  -0.1474
  C  C339  1  0.963300  0.325900  0.325900  1.0  0.058
  C  C340  1  0.962700  0.295500  0.295500  1.0  -0.1251
  C  C341  1  0.366700  0.366700  0.778200  1.0  -0.151
  C  C342  1  0.397100  0.397100  0.777700  1.0  0.0413
  C  C343  1  0.412600  0.412600  0.814600  1.0  -0.1706
  C  C344  1  0.397800  0.397800  0.852100  1.0  -0.0491
  C  C345  1  0.367400  0.367400  0.852600  1.0  0.0907
  C  C346  1  0.351900  0.351900  0.815700  1.0  -0.0729
  C  C347  1  0.347800  0.347800  0.740700  1.0  0.7255
  C  C348  1  0.445000  0.445000  0.816200  1.0  0.7035
  C  C349  1  0.352000  0.352000  0.891300  1.0  -0.1508
  C  C350  1  0.340800  0.340800  0.924300  1.0  -0.148
  C  C351  1  0.325900  0.325900  0.963300  1.0  0.0579
  C  C352  1  0.295500  0.295500  0.962700  1.0  -0.1232
  C  C353  1  0.633300  0.366700  0.221800  1.0  -0.1506
  C  C354  1  0.602900  0.397100  0.222300  1.0  0.0401
  C  C355  1  0.587400  0.412600  0.185400  1.0  -0.1711
  C  C356  1  0.602200  0.397800  0.147900  1.0  -0.0489
  C  C357  1  0.632600  0.367400  0.147400  1.0  0.0939
  C  C358  1  0.648100  0.351900  0.184300  1.0  -0.0724
  C  C359  1  0.652200  0.347800  0.259300  1.0  0.7246
  C  C360  1  0.555000  0.445000  0.183800  1.0  0.7036
  C  C361  1  0.648000  0.352000  0.108700  1.0  -0.1529
  C  C362  1  0.659200  0.340800  0.075700  1.0  -0.1456
  C  C363  1  0.674100  0.325900  0.036700  1.0  0.057
  C  C364  1  0.704500  0.295500  0.037300  1.0  -0.1214
  C  C365  1  0.633300  0.633300  0.778200  1.0  -0.1501
  C  C366  1  0.602900  0.602900  0.777700  1.0  0.0422
  C  C367  1  0.587400  0.587400  0.814600  1.0  -0.171
  C  C368  1  0.602200  0.602200  0.852100  1.0  -0.0491
  C  C369  1  0.632600  0.632600  0.852600  1.0  0.0931
  C  C370  1  0.648100  0.648100  0.815700  1.0  -0.073
  C  C371  1  0.652200  0.652200  0.740700  1.0  0.7257
  C  C372  1  0.555000  0.555000  0.816200  1.0  0.7031
  C  C373  1  0.648000  0.648000  0.891300  1.0  -0.1504
  C  C374  1  0.659200  0.659200  0.924300  1.0  -0.1483
  C  C375  1  0.674100  0.674100  0.963300  1.0  0.0574
  C  C376  1  0.704500  0.704500  0.962700  1.0  -0.1239
  C  C377  1  0.366700  0.633300  0.221800  1.0  -0.1512
  C  C378  1  0.397100  0.602900  0.222300  1.0  0.0416
  C  C379  1  0.412600  0.587400  0.185400  1.0  -0.1703
  C  C380  1  0.397800  0.602200  0.147900  1.0  -0.0481
  C  C381  1  0.367400  0.632600  0.147400  1.0  0.0923
  C  C382  1  0.351900  0.648100  0.184300  1.0  -0.0737
  C  C383  1  0.347800  0.652200  0.259300  1.0  0.7246
  C  C384  1  0.445000  0.555000  0.183800  1.0  0.7031
  C  C385  1  0.352000  0.648000  0.108700  1.0  -0.1527
  C  C386  1  0.340800  0.659200  0.075700  1.0  -0.1459
  C  C387  1  0.325900  0.674100  0.036700  1.0  0.0582
  C  C388  1  0.295500  0.704500  0.037300  1.0  -0.1244
  C  C389  1  0.366700  0.221800  0.633300  1.0  -0.1488
  C  C390  1  0.397100  0.222300  0.602900  1.0  0.0438
  C  C391  1  0.412600  0.185400  0.587400  1.0  -0.1708
  C  C392  1  0.397800  0.147900  0.602200  1.0  -0.0485
  C  C393  1  0.367400  0.147400  0.632600  1.0  0.092
  C  C394  1  0.351900  0.184300  0.648100  1.0  -0.0704
  C  C395  1  0.347800  0.259300  0.652200  1.0  0.7227
  C  C396  1  0.445000  0.183800  0.555000  1.0  0.7039
  C  C397  1  0.352000  0.108700  0.648000  1.0  -0.1491
  C  C398  1  0.340800  0.075700  0.659200  1.0  -0.1462
  C  C399  1  0.325900  0.036700  0.674100  1.0  0.0588
  C  C400  1  0.295500  0.037300  0.704500  1.0  -0.128
  C  C401  1  0.366700  0.778200  0.366700  1.0  -0.1491
  C  C402  1  0.397100  0.777700  0.397100  1.0  0.0433
  C  C403  1  0.412600  0.814600  0.412600  1.0  -0.1704
  C  C404  1  0.397800  0.852100  0.397800  1.0  -0.0478
  C  C405  1  0.367400  0.852600  0.367400  1.0  0.0923
  C  C406  1  0.351900  0.815700  0.351900  1.0  -0.0714
  C  C407  1  0.347800  0.740700  0.347800  1.0  0.723
  C  C408  1  0.445000  0.816200  0.445000  1.0  0.7036
  C  C409  1  0.352000  0.891300  0.352000  1.0  -0.1508
  C  C410  1  0.340800  0.924300  0.340800  1.0  -0.1458
  C  C411  1  0.325900  0.963300  0.325900  1.0  0.0596
  C  C412  1  0.295500  0.962700  0.295500  1.0  -0.1276
  C  C413  1  0.633300  0.221800  0.366700  1.0  -0.1483
  C  C414  1  0.602900  0.222300  0.397100  1.0  0.0433
  C  C415  1  0.587400  0.185400  0.412600  1.0  -0.171
  C  C416  1  0.602200  0.147900  0.397800  1.0  -0.0489
  C  C417  1  0.632600  0.147400  0.367400  1.0  0.0943
  C  C418  1  0.648100  0.184300  0.351900  1.0  -0.071
  C  C419  1  0.652200  0.259300  0.347800  1.0  0.7227
  C  C420  1  0.555000  0.183800  0.445000  1.0  0.7036
  C  C421  1  0.648000  0.108700  0.352000  1.0  -0.1494
  C  C422  1  0.659200  0.075700  0.340800  1.0  -0.1455
  C  C423  1  0.674100  0.036700  0.325900  1.0  0.0591
  C  C424  1  0.704500  0.037300  0.295500  1.0  -0.1277
  C  C425  1  0.633300  0.778200  0.633300  1.0  -0.1486
  C  C426  1  0.602900  0.777700  0.602900  1.0  0.0433
  C  C427  1  0.587400  0.814600  0.587400  1.0  -0.1714
  C  C428  1  0.602200  0.852100  0.602200  1.0  -0.0484
  C  C429  1  0.632600  0.852600  0.632600  1.0  0.0937
  C  C430  1  0.648100  0.815700  0.648100  1.0  -0.0701
  C  C431  1  0.652200  0.740700  0.652200  1.0  0.7232
  C  C432  1  0.555000  0.816200  0.555000  1.0  0.7038
  C  C433  1  0.648000  0.891300  0.648000  1.0  -0.1503
  C  C434  1  0.659200  0.924300  0.659200  1.0  -0.1462
  C  C435  1  0.674100  0.963300  0.674100  1.0  0.0579
  C  C436  1  0.704500  0.962700  0.704500  1.0  -0.1255
  C  C437  1  0.341500  0.000000  0.341500  1.0  -0.1375
  C  C438  1  0.280200  0.000000  0.280200  1.0  -0.1368
  C  C439  1  0.658500  0.000000  0.341500  1.0  -0.141
  C  C440  1  0.719800  0.000000  0.280200  1.0  -0.1359
  C  C441  1  0.658500  0.000000  0.658500  1.0  -0.1407
  C  C442  1  0.719800  0.000000  0.719800  1.0  -0.1364
  C  C443  1  0.341500  0.000000  0.658500  1.0  -0.1387
  C  C444  1  0.280200  0.000000  0.719800  1.0  -0.1372
  C  C445  1  0.341500  0.341500  0.000000  1.0  -0.1393
  C  C446  1  0.280200  0.280200  0.000000  1.0  -0.1377
  C  C447  1  0.341500  0.658500  0.000000  1.0  -0.1381
  C  C448  1  0.280200  0.719800  0.000000  1.0  -0.1375
  C  C449  1  0.658500  0.658500  0.000000  1.0  -0.1404
  C  C450  1  0.719800  0.719800  0.000000  1.0  -0.1365
  C  C451  1  0.658500  0.341500  0.000000  1.0  -0.142
  C  C452  1  0.719800  0.280200  0.000000  1.0  -0.1365
  C  C453  1  0.000000  0.341500  0.341500  1.0  -0.1388
  C  C454  1  0.000000  0.280200  0.280200  1.0  -0.1389
  C  C455  1  0.000000  0.341500  0.658500  1.0  -0.1383
  C  C456  1  0.000000  0.280200  0.719800  1.0  -0.1397
  C  C457  1  0.000000  0.658500  0.658500  1.0  -0.1381
  C  C458  1  0.000000  0.719800  0.719800  1.0  -0.1406
  C  C459  1  0.000000  0.658500  0.341500  1.0  -0.1373
  C  C460  1  0.000000  0.719800  0.280200  1.0  -0.1393
  O  O461  1  0.320300  0.252900  0.320300  1.0  -0.5882
  O  O462  1  0.362600  0.292500  0.362600  1.0  -0.603
  O  O463  1  0.458800  0.149100  0.458800  1.0  -0.5807
  O  O464  1  0.457400  0.219900  0.457400  1.0  -0.58
  O  O465  1  0.679700  0.747100  0.320300  1.0  -0.5873
  O  O466  1  0.637400  0.707500  0.362600  1.0  -0.6028
  O  O467  1  0.541200  0.850900  0.458800  1.0  -0.582
  O  O468  1  0.542600  0.780100  0.457400  1.0  -0.5807
  O  O469  1  0.679700  0.252900  0.679700  1.0  -0.589
  O  O470  1  0.637400  0.292500  0.637400  1.0  -0.6032
  O  O471  1  0.541200  0.149100  0.541200  1.0  -0.5807
  O  O472  1  0.542600  0.219900  0.542600  1.0  -0.581
  O  O473  1  0.320300  0.747100  0.679700  1.0  -0.5878
  O  O474  1  0.362600  0.707500  0.637400  1.0  -0.6023
  O  O475  1  0.458800  0.850900  0.541200  1.0  -0.5816
  O  O476  1  0.457400  0.780100  0.542600  1.0  -0.5799
  O  O477  1  0.320300  0.320300  0.252900  1.0  -0.5883
  O  O478  1  0.362600  0.362600  0.292500  1.0  -0.6015
  O  O479  1  0.458800  0.458800  0.149100  1.0  -0.5813
  O  O480  1  0.457400  0.457400  0.219900  1.0  -0.5805
  O  O481  1  0.320300  0.679700  0.747100  1.0  -0.59
  O  O482  1  0.362600  0.637400  0.707500  1.0  -0.6018
  O  O483  1  0.458800  0.541200  0.850900  1.0  -0.5814
  O  O484  1  0.457400  0.542600  0.780100  1.0  -0.5806
  O  O485  1  0.679700  0.679700  0.252900  1.0  -0.5895
  O  O486  1  0.637400  0.637400  0.292500  1.0  -0.6026
  O  O487  1  0.541200  0.541200  0.149100  1.0  -0.5816
  O  O488  1  0.542600  0.542600  0.219900  1.0  -0.5813
  O  O489  1  0.679700  0.320300  0.747100  1.0  -0.5893
  O  O490  1  0.637400  0.362600  0.707500  1.0  -0.6015
  O  O491  1  0.541200  0.458800  0.850900  1.0  -0.5814
  O  O492  1  0.542600  0.457400  0.780100  1.0  -0.5805
  O  O493  1  0.252900  0.320300  0.320300  1.0  -0.5895
  O  O494  1  0.292500  0.362600  0.362600  1.0  -0.603
  O  O495  1  0.149100  0.458800  0.458800  1.0  -0.5791
  O  O496  1  0.219900  0.457400  0.457400  1.0  -0.5781
  O  O497  1  0.747100  0.320300  0.679700  1.0  -0.5895
  O  O498  1  0.707500  0.362600  0.637400  1.0  -0.6026
  O  O499  1  0.850900  0.458800  0.541200  1.0  -0.5791
  O  O500  1  0.780100  0.457400  0.542600  1.0  -0.5786
  O  O501  1  0.252900  0.679700  0.679700  1.0  -0.5915
  O  O502  1  0.292500  0.637400  0.637400  1.0  -0.6031
  O  O503  1  0.149100  0.541200  0.541200  1.0  -0.5789
  O  O504  1  0.219900  0.542600  0.542600  1.0  -0.5777
  O  O505  1  0.747100  0.679700  0.320300  1.0  -0.59
  O  O506  1  0.707500  0.637400  0.362600  1.0  -0.6033
  O  O507  1  0.850900  0.541200  0.458800  1.0  -0.5792
  O  O508  1  0.780100  0.542600  0.457400  1.0  -0.5782
  O  O509  1  0.252900  0.320300  0.679700  1.0  -0.5895
  O  O510  1  0.292500  0.362600  0.637400  1.0  -0.6029
  O  O511  1  0.149100  0.458800  0.541200  1.0  -0.5794
  O  O512  1  0.219900  0.457400  0.542600  1.0  -0.578
  O  O513  1  0.747100  0.679700  0.679700  1.0  -0.5898
  O  O514  1  0.707500  0.637400  0.637400  1.0  -0.6033
  O  O515  1  0.850900  0.541200  0.541200  1.0  -0.5792
  O  O516  1  0.780100  0.542600  0.542600  1.0  -0.5785
  O  O517  1  0.252900  0.679700  0.320300  1.0  -0.5908
  O  O518  1  0.292500  0.637400  0.362600  1.0  -0.604
  O  O519  1  0.149100  0.541200  0.458800  1.0  -0.579
  O  O520  1  0.219900  0.542600  0.457400  1.0  -0.5778
  O  O521  1  0.747100  0.320300  0.320300  1.0  -0.5881
  O  O522  1  0.707500  0.362600  0.362600  1.0  -0.603
  O  O523  1  0.850900  0.458800  0.458800  1.0  -0.5792
  O  O524  1  0.780100  0.457400  0.457400  1.0  -0.5785
  O  O525  1  0.320300  0.320300  0.747100  1.0  -0.5892
  O  O526  1  0.362600  0.362600  0.707500  1.0  -0.6014
  O  O527  1  0.458800  0.458800  0.850900  1.0  -0.5809
  O  O528  1  0.457400  0.457400  0.780100  1.0  -0.5795
  O  O529  1  0.679700  0.320300  0.252900  1.0  -0.5885
  O  O530  1  0.637400  0.362600  0.292500  1.0  -0.602
  O  O531  1  0.541200  0.458800  0.149100  1.0  -0.5814
  O  O532  1  0.542600  0.457400  0.219900  1.0  -0.5814
  O  O533  1  0.679700  0.679700  0.747100  1.0  -0.5903
  O  O534  1  0.637400  0.637400  0.707500  1.0  -0.6018
  O  O535  1  0.541200  0.541200  0.850900  1.0  -0.5817
  O  O536  1  0.542600  0.542600  0.780100  1.0  -0.5809
  O  O537  1  0.320300  0.679700  0.252900  1.0  -0.5893
  O  O538  1  0.362600  0.637400  0.292500  1.0  -0.602
  O  O539  1  0.458800  0.541200  0.149100  1.0  -0.5808
  O  O540  1  0.457400  0.542600  0.219900  1.0  -0.5805
  O  O541  1  0.320300  0.252900  0.679700  1.0  -0.5898
  O  O542  1  0.362600  0.292500  0.637400  1.0  -0.6029
  O  O543  1  0.458800  0.149100  0.541200  1.0  -0.581
  O  O544  1  0.457400  0.219900  0.542600  1.0  -0.5803
  O  O545  1  0.320300  0.747100  0.320300  1.0  -0.5877
  O  O546  1  0.362600  0.707500  0.362600  1.0  -0.6023
  O  O547  1  0.458800  0.850900  0.458800  1.0  -0.5818
  O  O548  1  0.457400  0.780100  0.457400  1.0  -0.5799
  O  O549  1  0.679700  0.252900  0.320300  1.0  -0.5896
  O  O550  1  0.637400  0.292500  0.362600  1.0  -0.6029
  O  O551  1  0.541200  0.149100  0.458800  1.0  -0.5807
  O  O552  1  0.542600  0.219900  0.457400  1.0  -0.5807
  O  O553  1  0.679700  0.747100  0.679700  1.0  -0.5882
  O  O554  1  0.637400  0.707500  0.637400  1.0  -0.6025
  O  O555  1  0.541200  0.850900  0.541200  1.0  -0.582
  O  O556  1  0.542600  0.780100  0.542600  1.0  -0.5808
