# generated using pymatgen
data_Zn7H36C72(NO5)6
_symmetry_space_group_name_H-M   'P 1'
_cell_length_a   31.10200000
_cell_length_b   31.10200000
_cell_length_c   31.10200000
_cell_angle_alpha   90.00000000
_cell_angle_beta   90.00000000
_cell_angle_gamma   90.00000000
_symmetry_Int_Tables_number   1
_chemical_formula_structural   Zn7H36C72(NO5)6
_chemical_formula_sum   'Zn28 H144 C288 N24 O120'
_cell_volume   30086.03463321
_cell_formula_units_Z   4
loop_
 _symmetry_equiv_pos_site_id
 _symmetry_equiv_pos_as_xyz
  1  'x, y, z'
loop_
 _atom_site_type_symbol
 _atom_site_label
 _atom_site_symmetry_multiplicity
 _atom_site_fract_x
 _atom_site_fract_y
 _atom_site_fract_z
 _atom_site_occupancy
 _atom_site_charge
  Zn  Zn1  1  0.500000  0.500000  0.127430  1.0  1.1037
  Zn  Zn2  1  0.500000  0.500000  0.223340  1.0  1.12
  Zn  Zn3  1  0.500000  0.500000  0.872570  1.0  1.0985
  Zn  Zn4  1  0.500000  0.500000  0.776660  1.0  1.1242
  Zn  Zn5  1  0.127430  0.500000  0.500000  1.0  1.1048
  Zn  Zn6  1  0.223340  0.500000  0.500000  1.0  1.1308
  Zn  Zn7  1  0.872570  0.500000  0.500000  1.0  1.1084
  Zn  Zn8  1  0.776660  0.500000  0.500000  1.0  1.1289
  Zn  Zn9  1  0.500000  0.127430  0.500000  1.0  1.1089
  Zn  Zn10  1  0.500000  0.223340  0.500000  1.0  1.133
  Zn  Zn11  1  0.500000  0.872570  0.500000  1.0  1.1077
  Zn  Zn12  1  0.500000  0.776660  0.500000  1.0  1.1326
  Zn  Zn13  1  0.343290  0.343290  0.343290  1.0  0.9168
  Zn  Zn14  1  0.278040  0.278040  0.278040  1.0  0.7984
  Zn  Zn15  1  0.656710  0.656710  0.343290  1.0  0.9148
  Zn  Zn16  1  0.721960  0.721960  0.278040  1.0  0.7977
  Zn  Zn17  1  0.656710  0.343290  0.656710  1.0  0.9177
  Zn  Zn18  1  0.721960  0.278040  0.721960  1.0  0.7967
  Zn  Zn19  1  0.343290  0.656710  0.656710  1.0  0.9173
  Zn  Zn20  1  0.278040  0.721960  0.721960  1.0  0.7944
  Zn  Zn21  1  0.656710  0.656710  0.656710  1.0  0.9175
  Zn  Zn22  1  0.721960  0.721960  0.721960  1.0  0.7968
  Zn  Zn23  1  0.343290  0.343290  0.656710  1.0  0.9171
  Zn  Zn24  1  0.278040  0.278040  0.721960  1.0  0.7945
  Zn  Zn25  1  0.343290  0.656710  0.343290  1.0  0.9155
  Zn  Zn26  1  0.278040  0.721960  0.278040  1.0  0.7955
  Zn  Zn27  1  0.656710  0.343290  0.343290  1.0  0.9163
  Zn  Zn28  1  0.721960  0.278040  0.278040  1.0  0.8005
  H  H29  1  0.410100  0.306100  0.090100  1.0  0.2665
  H  H30  1  0.396900  0.417500  0.231900  1.0  0.119
  H  H31  1  0.351400  0.305200  0.184000  1.0  0.125
  H  H32  1  0.433400  0.377700  0.113300  1.0  0.1163
  H  H33  1  0.376700  0.215600  0.065100  1.0  0.1199
  H  H34  1  0.589900  0.693900  0.090100  1.0  0.2668
  H  H35  1  0.603100  0.582500  0.231900  1.0  0.1192
  H  H36  1  0.648600  0.694800  0.184000  1.0  0.1248
  H  H37  1  0.566600  0.622300  0.113300  1.0  0.1164
  H  H38  1  0.623300  0.784400  0.065100  1.0  0.1204
  H  H39  1  0.589900  0.306100  0.909900  1.0  0.2666
  H  H40  1  0.603100  0.417500  0.768100  1.0  0.119
  H  H41  1  0.648600  0.305200  0.816000  1.0  0.1249
  H  H42  1  0.566600  0.377700  0.886700  1.0  0.1169
  H  H43  1  0.623300  0.215600  0.934900  1.0  0.1201
  H  H44  1  0.410100  0.693900  0.909900  1.0  0.2658
  H  H45  1  0.396900  0.582500  0.768100  1.0  0.119
  H  H46  1  0.351400  0.694800  0.816000  1.0  0.1252
  H  H47  1  0.433400  0.622300  0.886700  1.0  0.1168
  H  H48  1  0.376700  0.784400  0.934900  1.0  0.1204
  H  H49  1  0.090100  0.410100  0.306100  1.0  0.267
  H  H50  1  0.231900  0.396900  0.417500  1.0  0.1196
  H  H51  1  0.184000  0.351400  0.305200  1.0  0.1251
  H  H52  1  0.113300  0.433400  0.377700  1.0  0.1157
  H  H53  1  0.065100  0.376700  0.215600  1.0  0.1206
  H  H54  1  0.090100  0.589900  0.693900  1.0  0.2672
  H  H55  1  0.231900  0.603100  0.582500  1.0  0.1194
  H  H56  1  0.184000  0.648600  0.694800  1.0  0.1257
  H  H57  1  0.113300  0.566600  0.622300  1.0  0.1161
  H  H58  1  0.065100  0.623300  0.784400  1.0  0.1204
  H  H59  1  0.909900  0.589900  0.306100  1.0  0.2658
  H  H60  1  0.768100  0.603100  0.417500  1.0  0.1193
  H  H61  1  0.816000  0.648600  0.305200  1.0  0.1251
  H  H62  1  0.886700  0.566600  0.377700  1.0  0.1167
  H  H63  1  0.934900  0.623300  0.215600  1.0  0.1206
  H  H64  1  0.909900  0.410100  0.693900  1.0  0.2671
  H  H65  1  0.768100  0.396900  0.582500  1.0  0.1191
  H  H66  1  0.816000  0.351400  0.694800  1.0  0.1256
  H  H67  1  0.886700  0.433400  0.622300  1.0  0.1164
  H  H68  1  0.934900  0.376700  0.784400  1.0  0.1204
  H  H69  1  0.306100  0.090100  0.410100  1.0  0.2674
  H  H70  1  0.417500  0.231900  0.396900  1.0  0.119
  H  H71  1  0.305200  0.184000  0.351400  1.0  0.1257
  H  H72  1  0.377700  0.113300  0.433400  1.0  0.1174
  H  H73  1  0.215600  0.065100  0.376700  1.0  0.1208
  H  H74  1  0.693900  0.090100  0.589900  1.0  0.2674
  H  H75  1  0.582500  0.231900  0.603100  1.0  0.1196
  H  H76  1  0.694800  0.184000  0.648600  1.0  0.1254
  H  H77  1  0.622300  0.113300  0.566600  1.0  0.117
  H  H78  1  0.784400  0.065100  0.623300  1.0  0.1204
  H  H79  1  0.306100  0.909900  0.589900  1.0  0.2686
  H  H80  1  0.417500  0.768100  0.603100  1.0  0.1195
  H  H81  1  0.305200  0.816000  0.648600  1.0  0.1262
  H  H82  1  0.377700  0.886700  0.566600  1.0  0.117
  H  H83  1  0.215600  0.934900  0.623300  1.0  0.1198
  H  H84  1  0.693900  0.909900  0.410100  1.0  0.2656
  H  H85  1  0.582500  0.768100  0.396900  1.0  0.1183
  H  H86  1  0.694800  0.816000  0.351400  1.0  0.1253
  H  H87  1  0.622300  0.886700  0.433400  1.0  0.1168
  H  H88  1  0.784400  0.934900  0.376700  1.0  0.1205
  H  H89  1  0.589900  0.693900  0.909900  1.0  0.2663
  H  H90  1  0.603100  0.582500  0.768100  1.0  0.1191
  H  H91  1  0.648600  0.694800  0.816000  1.0  0.1248
  H  H92  1  0.566600  0.622300  0.886700  1.0  0.1168
  H  H93  1  0.623300  0.784400  0.934900  1.0  0.1204
  H  H94  1  0.410100  0.306100  0.909900  1.0  0.2659
  H  H95  1  0.396900  0.417500  0.768100  1.0  0.1189
  H  H96  1  0.351400  0.305200  0.816000  1.0  0.125
  H  H97  1  0.433400  0.377700  0.886700  1.0  0.1168
  H  H98  1  0.376700  0.215600  0.934900  1.0  0.12
  H  H99  1  0.410100  0.693900  0.090100  1.0  0.2668
  H  H100  1  0.396900  0.582500  0.231900  1.0  0.1193
  H  H101  1  0.351400  0.694800  0.184000  1.0  0.1252
  H  H102  1  0.433400  0.622300  0.113300  1.0  0.1163
  H  H103  1  0.376700  0.784400  0.065100  1.0  0.1202
  H  H104  1  0.589900  0.306100  0.090100  1.0  0.2667
  H  H105  1  0.603100  0.417500  0.231900  1.0  0.119
  H  H106  1  0.648600  0.305200  0.184000  1.0  0.125
  H  H107  1  0.566600  0.377700  0.113300  1.0  0.1164
  H  H108  1  0.623300  0.215600  0.065100  1.0  0.1202
  H  H109  1  0.909900  0.589900  0.693900  1.0  0.2658
  H  H110  1  0.768100  0.603100  0.582500  1.0  0.1191
  H  H111  1  0.816000  0.648600  0.694800  1.0  0.1257
  H  H112  1  0.886700  0.566600  0.622300  1.0  0.1167
  H  H113  1  0.934900  0.623300  0.784400  1.0  0.1206
  H  H114  1  0.909900  0.410100  0.306100  1.0  0.267
  H  H115  1  0.768100  0.396900  0.417500  1.0  0.1193
  H  H116  1  0.816000  0.351400  0.305200  1.0  0.1251
  H  H117  1  0.886700  0.433400  0.377700  1.0  0.1161
  H  H118  1  0.934900  0.376700  0.215600  1.0  0.1208
  H  H119  1  0.090100  0.410100  0.693900  1.0  0.2668
  H  H120  1  0.231900  0.396900  0.582500  1.0  0.1193
  H  H121  1  0.184000  0.351400  0.694800  1.0  0.1255
  H  H122  1  0.113300  0.433400  0.622300  1.0  0.1159
  H  H123  1  0.065100  0.376700  0.784400  1.0  0.1202
  H  H124  1  0.090100  0.589900  0.306100  1.0  0.2671
  H  H125  1  0.231900  0.603100  0.417500  1.0  0.1195
  H  H126  1  0.184000  0.648600  0.305200  1.0  0.125
  H  H127  1  0.113300  0.566600  0.377700  1.0  0.1164
  H  H128  1  0.065100  0.623300  0.215600  1.0  0.1206
  H  H129  1  0.693900  0.909900  0.589900  1.0  0.2675
  H  H130  1  0.582500  0.768100  0.603100  1.0  0.1192
  H  H131  1  0.694800  0.816000  0.648600  1.0  0.1257
  H  H132  1  0.622300  0.886700  0.566600  1.0  0.1168
  H  H133  1  0.784400  0.934900  0.623300  1.0  0.1202
  H  H134  1  0.306100  0.909900  0.410100  1.0  0.2673
  H  H135  1  0.417500  0.768100  0.396900  1.0  0.1188
  H  H136  1  0.305200  0.816000  0.351400  1.0  0.1258
  H  H137  1  0.377700  0.886700  0.433400  1.0  0.1171
  H  H138  1  0.215600  0.934900  0.376700  1.0  0.1203
  H  H139  1  0.693900  0.090100  0.410100  1.0  0.2656
  H  H140  1  0.582500  0.231900  0.396900  1.0  0.1191
  H  H141  1  0.694800  0.184000  0.351400  1.0  0.1251
  H  H142  1  0.622300  0.113300  0.433400  1.0  0.1173
  H  H143  1  0.784400  0.065100  0.376700  1.0  0.1203
  H  H144  1  0.306100  0.090100  0.589900  1.0  0.2684
  H  H145  1  0.417500  0.231900  0.603100  1.0  0.1194
  H  H146  1  0.305200  0.184000  0.648600  1.0  0.126
  H  H147  1  0.377700  0.113300  0.566600  1.0  0.1172
  H  H148  1  0.215600  0.065100  0.623300  1.0  0.1207
  H  H149  1  0.349900  0.325300  0.000000  1.0  0.1267
  H  H150  1  0.386700  0.179100  0.000000  1.0  0.1116
  H  H151  1  0.650100  0.674700  0.000000  1.0  0.1256
  H  H152  1  0.613300  0.820900  0.000000  1.0  0.1098
  H  H153  1  0.650100  0.325300  0.000000  1.0  0.1267
  H  H154  1  0.613300  0.179100  0.000000  1.0  0.1114
  H  H155  1  0.349900  0.674700  0.000000  1.0  0.126
  H  H156  1  0.386700  0.820900  0.000000  1.0  0.1107
  H  H157  1  0.000000  0.349900  0.325300  1.0  0.1253
  H  H158  1  0.000000  0.386700  0.179100  1.0  0.1072
  H  H159  1  0.000000  0.650100  0.674700  1.0  0.1238
  H  H160  1  0.000000  0.613300  0.820900  1.0  0.1067
  H  H161  1  0.000000  0.650100  0.325300  1.0  0.1253
  H  H162  1  0.000000  0.613300  0.179100  1.0  0.1065
  H  H163  1  0.000000  0.349900  0.674700  1.0  0.1234
  H  H164  1  0.000000  0.386700  0.820900  1.0  0.1066
  H  H165  1  0.325300  0.000000  0.349900  1.0  0.1247
  H  H166  1  0.179100  0.000000  0.386700  1.0  0.1047
  H  H167  1  0.674700  0.000000  0.650100  1.0  0.1246
  H  H168  1  0.820900  0.000000  0.613300  1.0  0.1071
  H  H169  1  0.325300  0.000000  0.650100  1.0  0.1243
  H  H170  1  0.179100  0.000000  0.613300  1.0  0.1052
  H  H171  1  0.674700  0.000000  0.349900  1.0  0.1249
  H  H172  1  0.820900  0.000000  0.386700  1.0  0.107
  C  C173  1  0.419100  0.403400  0.171800  1.0  0.0257
  C  C174  1  0.395700  0.396900  0.209300  1.0  -0.0929
  C  C175  1  0.370500  0.360300  0.213900  1.0  -0.0295
  C  C176  1  0.368700  0.330200  0.180900  1.0  -0.1321
  C  C177  1  0.392100  0.336700  0.143400  1.0  0.0925
  C  C178  1  0.417300  0.373300  0.138900  1.0  -0.0347
  C  C179  1  0.444700  0.440500  0.175800  1.0  0.7146
  C  C180  1  0.347000  0.344800  0.248800  1.0  0.7034
  C  C181  1  0.354000  0.290900  0.082000  1.0  0.469
  C  C182  1  0.361900  0.273500  0.038800  1.0  -0.0253
  C  C183  1  0.373000  0.230400  0.038700  1.0  -0.1742
  C  C184  1  0.580900  0.596600  0.171800  1.0  0.0247
  C  C185  1  0.604300  0.603100  0.209300  1.0  -0.0917
  C  C186  1  0.629500  0.639700  0.213900  1.0  -0.0299
  C  C187  1  0.631300  0.669800  0.180900  1.0  -0.1324
  C  C188  1  0.607900  0.663300  0.143400  1.0  0.0923
  C  C189  1  0.582700  0.626700  0.138900  1.0  -0.0347
  C  C190  1  0.555300  0.559500  0.175800  1.0  0.7154
  C  C191  1  0.653000  0.655200  0.248800  1.0  0.7033
  C  C192  1  0.646000  0.709100  0.082000  1.0  0.4681
  C  C193  1  0.638100  0.726500  0.038800  1.0  -0.026
  C  C194  1  0.627000  0.769600  0.038700  1.0  -0.1754
  C  C195  1  0.580900  0.403400  0.828200  1.0  0.0241
  C  C196  1  0.604300  0.396900  0.790700  1.0  -0.0927
  C  C197  1  0.629500  0.360300  0.786100  1.0  -0.0313
  C  C198  1  0.631300  0.330200  0.819100  1.0  -0.1311
  C  C199  1  0.607900  0.336700  0.856600  1.0  0.0923
  C  C200  1  0.582700  0.373300  0.861100  1.0  -0.0343
  C  C201  1  0.555300  0.440500  0.824200  1.0  0.7154
  C  C202  1  0.653000  0.344800  0.751200  1.0  0.7052
  C  C203  1  0.646000  0.290900  0.918000  1.0  0.4669
  C  C204  1  0.638100  0.273500  0.961200  1.0  -0.026
  C  C205  1  0.627000  0.230400  0.961300  1.0  -0.1739
  C  C206  1  0.419100  0.596600  0.828200  1.0  0.0252
  C  C207  1  0.395700  0.603100  0.790700  1.0  -0.0924
  C  C208  1  0.370500  0.639700  0.786100  1.0  -0.031
  C  C209  1  0.368700  0.669800  0.819100  1.0  -0.1328
  C  C210  1  0.392100  0.663300  0.856600  1.0  0.0922
  C  C211  1  0.417300  0.626700  0.861100  1.0  -0.0328
  C  C212  1  0.444700  0.559500  0.824200  1.0  0.7142
  C  C213  1  0.347000  0.655200  0.751200  1.0  0.7048
  C  C214  1  0.354000  0.709100  0.918000  1.0  0.4679
  C  C215  1  0.361900  0.726500  0.961200  1.0  -0.0255
  C  C216  1  0.373000  0.769600  0.961300  1.0  -0.1746
  C  C217  1  0.171800  0.419100  0.403400  1.0  0.0233
  C  C218  1  0.209300  0.395700  0.396900  1.0  -0.0936
  C  C219  1  0.213900  0.370500  0.360300  1.0  -0.0293
  C  C220  1  0.180900  0.368700  0.330200  1.0  -0.1308
  C  C221  1  0.143400  0.392100  0.336700  1.0  0.0923
  C  C222  1  0.138900  0.417300  0.373300  1.0  -0.034
  C  C223  1  0.175800  0.444700  0.440500  1.0  0.7169
  C  C224  1  0.248800  0.347000  0.344800  1.0  0.7014
  C  C225  1  0.082000  0.354000  0.290900  1.0  0.4703
  C  C226  1  0.038800  0.361900  0.273500  1.0  -0.0268
  C  C227  1  0.038700  0.373000  0.230400  1.0  -0.174
  C  C228  1  0.171800  0.580900  0.596600  1.0  0.0233
  C  C229  1  0.209300  0.604300  0.603100  1.0  -0.094
  C  C230  1  0.213900  0.629500  0.639700  1.0  -0.0298
  C  C231  1  0.180900  0.631300  0.669800  1.0  -0.1299
  C  C232  1  0.143400  0.607900  0.663300  1.0  0.0923
  C  C233  1  0.138900  0.582700  0.626700  1.0  -0.0327
  C  C234  1  0.175800  0.555300  0.559500  1.0  0.7171
  C  C235  1  0.248800  0.653000  0.655200  1.0  0.7015
  C  C236  1  0.082000  0.646000  0.709100  1.0  0.4687
  C  C237  1  0.038800  0.638100  0.726500  1.0  -0.0273
  C  C238  1  0.038700  0.627000  0.769600  1.0  -0.1733
  C  C239  1  0.828200  0.580900  0.403400  1.0  0.0239
  C  C240  1  0.790700  0.604300  0.396900  1.0  -0.095
  C  C241  1  0.786100  0.629500  0.360300  1.0  -0.0281
  C  C242  1  0.819100  0.631300  0.330200  1.0  -0.1305
  C  C243  1  0.856600  0.607900  0.336700  1.0  0.0924
  C  C244  1  0.861100  0.582700  0.373300  1.0  -0.0321
  C  C245  1  0.824200  0.555300  0.440500  1.0  0.717
  C  C246  1  0.751200  0.653000  0.344800  1.0  0.701
  C  C247  1  0.918000  0.646000  0.290900  1.0  0.467
  C  C248  1  0.961200  0.638100  0.273500  1.0  -0.0263
  C  C249  1  0.961300  0.627000  0.230400  1.0  -0.1739
  C  C250  1  0.828200  0.419100  0.596600  1.0  0.0236
  C  C251  1  0.790700  0.395700  0.603100  1.0  -0.095
  C  C252  1  0.786100  0.370500  0.639700  1.0  -0.029
  C  C253  1  0.819100  0.368700  0.669800  1.0  -0.1299
  C  C254  1  0.856600  0.392100  0.663300  1.0  0.0928
  C  C255  1  0.861100  0.417300  0.626700  1.0  -0.0325
  C  C256  1  0.824200  0.444700  0.559500  1.0  0.7167
  C  C257  1  0.751200  0.347000  0.655200  1.0  0.7012
  C  C258  1  0.918000  0.354000  0.709100  1.0  0.4693
  C  C259  1  0.961200  0.361900  0.726500  1.0  -0.0267
  C  C260  1  0.961300  0.373000  0.769600  1.0  -0.1747
  C  C261  1  0.403400  0.171800  0.419100  1.0  0.0245
  C  C262  1  0.396900  0.209300  0.395700  1.0  -0.0936
  C  C263  1  0.360300  0.213900  0.370500  1.0  -0.0303
  C  C264  1  0.330200  0.180900  0.368700  1.0  -0.1347
  C  C265  1  0.336700  0.143400  0.392100  1.0  0.0917
  C  C266  1  0.373300  0.138900  0.417300  1.0  -0.0311
  C  C267  1  0.440500  0.175800  0.444700  1.0  0.716
  C  C268  1  0.344800  0.248800  0.347000  1.0  0.7025
  C  C269  1  0.290900  0.082000  0.354000  1.0  0.4688
  C  C270  1  0.273500  0.038800  0.361900  1.0  -0.0248
  C  C271  1  0.230400  0.038700  0.373000  1.0  -0.1763
  C  C272  1  0.596600  0.171800  0.580900  1.0  0.0246
  C  C273  1  0.603100  0.209300  0.604300  1.0  -0.0946
  C  C274  1  0.639700  0.213900  0.629500  1.0  -0.0296
  C  C275  1  0.669800  0.180900  0.631300  1.0  -0.1339
  C  C276  1  0.663300  0.143400  0.607900  1.0  0.0923
  C  C277  1  0.626700  0.138900  0.582700  1.0  -0.0311
  C  C278  1  0.559500  0.175800  0.555300  1.0  0.7166
  C  C279  1  0.655200  0.248800  0.653000  1.0  0.7021
  C  C280  1  0.709100  0.082000  0.646000  1.0  0.4681
  C  C281  1  0.726500  0.038800  0.638100  1.0  -0.026
  C  C282  1  0.769600  0.038700  0.627000  1.0  -0.176
  C  C283  1  0.403400  0.828200  0.580900  1.0  0.0238
  C  C284  1  0.396900  0.790700  0.604300  1.0  -0.0937
  C  C285  1  0.360300  0.786100  0.629500  1.0  -0.0297
  C  C286  1  0.330200  0.819100  0.631300  1.0  -0.1348
  C  C287  1  0.336700  0.856600  0.607900  1.0  0.0918
  C  C288  1  0.373300  0.861100  0.582700  1.0  -0.0327
  C  C289  1  0.440500  0.824200  0.555300  1.0  0.7164
  C  C290  1  0.344800  0.751200  0.653000  1.0  0.7029
  C  C291  1  0.290900  0.918000  0.646000  1.0  0.4695
  C  C292  1  0.273500  0.961200  0.638100  1.0  -0.026
  C  C293  1  0.230400  0.961300  0.627000  1.0  -0.175
  C  C294  1  0.596600  0.828200  0.419100  1.0  0.0247
  C  C295  1  0.603100  0.790700  0.395700  1.0  -0.0935
  C  C296  1  0.639700  0.786100  0.370500  1.0  -0.0307
  C  C297  1  0.669800  0.819100  0.368700  1.0  -0.1334
  C  C298  1  0.663300  0.856600  0.392100  1.0  0.0919
  C  C299  1  0.626700  0.861100  0.417300  1.0  -0.0335
  C  C300  1  0.559500  0.824200  0.444700  1.0  0.7167
  C  C301  1  0.655200  0.751200  0.347000  1.0  0.7025
  C  C302  1  0.709100  0.918000  0.354000  1.0  0.4693
  C  C303  1  0.726500  0.961200  0.361900  1.0  -0.0256
  C  C304  1  0.769600  0.961300  0.373000  1.0  -0.1753
  C  C305  1  0.580900  0.596600  0.828200  1.0  0.0242
  C  C306  1  0.604300  0.603100  0.790700  1.0  -0.0924
  C  C307  1  0.629500  0.639700  0.786100  1.0  -0.0317
  C  C308  1  0.631300  0.669800  0.819100  1.0  -0.1317
  C  C309  1  0.607900  0.663300  0.856600  1.0  0.0922
  C  C310  1  0.582700  0.626700  0.861100  1.0  -0.0338
  C  C311  1  0.555300  0.559500  0.824200  1.0  0.7152
  C  C312  1  0.653000  0.655200  0.751200  1.0  0.7048
  C  C313  1  0.646000  0.709100  0.918000  1.0  0.4674
  C  C314  1  0.638100  0.726500  0.961200  1.0  -0.026
  C  C315  1  0.627000  0.769600  0.961300  1.0  -0.1747
  C  C316  1  0.419100  0.403400  0.828200  1.0  0.0251
  C  C317  1  0.395700  0.396900  0.790700  1.0  -0.0927
  C  C318  1  0.370500  0.360300  0.786100  1.0  -0.0301
  C  C319  1  0.368700  0.330200  0.819100  1.0  -0.1317
  C  C320  1  0.392100  0.336700  0.856600  1.0  0.0925
  C  C321  1  0.417300  0.373300  0.861100  1.0  -0.0333
  C  C322  1  0.444700  0.440500  0.824200  1.0  0.7144
  C  C323  1  0.347000  0.344800  0.751200  1.0  0.7052
  C  C324  1  0.354000  0.290900  0.918000  1.0  0.468
  C  C325  1  0.361900  0.273500  0.961200  1.0  -0.0252
  C  C326  1  0.373000  0.230400  0.961300  1.0  -0.1744
  C  C327  1  0.419100  0.596600  0.171800  1.0  0.0258
  C  C328  1  0.395700  0.603100  0.209300  1.0  -0.0921
  C  C329  1  0.370500  0.639700  0.213900  1.0  -0.0297
  C  C330  1  0.368700  0.669800  0.180900  1.0  -0.1334
  C  C331  1  0.392100  0.663300  0.143400  1.0  0.0923
  C  C332  1  0.417300  0.626700  0.138900  1.0  -0.0347
  C  C333  1  0.444700  0.559500  0.175800  1.0  0.7145
  C  C334  1  0.347000  0.655200  0.248800  1.0  0.703
  C  C335  1  0.354000  0.709100  0.082000  1.0  0.4688
  C  C336  1  0.361900  0.726500  0.038800  1.0  -0.0255
  C  C337  1  0.373000  0.769600  0.038700  1.0  -0.1749
  C  C338  1  0.580900  0.403400  0.171800  1.0  0.0247
  C  C339  1  0.604300  0.396900  0.209300  1.0  -0.0926
  C  C340  1  0.629500  0.360300  0.213900  1.0  -0.0303
  C  C341  1  0.631300  0.330200  0.180900  1.0  -0.1314
  C  C342  1  0.607900  0.336700  0.143400  1.0  0.0923
  C  C343  1  0.582700  0.373300  0.138900  1.0  -0.0347
  C  C344  1  0.555300  0.440500  0.175800  1.0  0.7155
  C  C345  1  0.653000  0.344800  0.248800  1.0  0.7036
  C  C346  1  0.646000  0.290900  0.082000  1.0  0.4678
  C  C347  1  0.638100  0.273500  0.038800  1.0  -0.026
  C  C348  1  0.627000  0.230400  0.038700  1.0  -0.174
  C  C349  1  0.828200  0.580900  0.596600  1.0  0.0235
  C  C350  1  0.790700  0.604300  0.603100  1.0  -0.0954
  C  C351  1  0.786100  0.629500  0.639700  1.0  -0.0288
  C  C352  1  0.819100  0.631300  0.669800  1.0  -0.1302
  C  C353  1  0.856600  0.607900  0.663300  1.0  0.0926
  C  C354  1  0.861100  0.582700  0.626700  1.0  -0.0321
  C  C355  1  0.824200  0.555300  0.559500  1.0  0.7169
  C  C356  1  0.751200  0.653000  0.655200  1.0  0.7011
  C  C357  1  0.918000  0.646000  0.709100  1.0  0.467
  C  C358  1  0.961200  0.638100  0.726500  1.0  -0.0266
  C  C359  1  0.961300  0.627000  0.769600  1.0  -0.1745
  C  C360  1  0.828200  0.419100  0.403400  1.0  0.0237
  C  C361  1  0.790700  0.395700  0.396900  1.0  -0.0942
  C  C362  1  0.786100  0.370500  0.360300  1.0  -0.0283
  C  C363  1  0.819100  0.368700  0.330200  1.0  -0.1306
  C  C364  1  0.856600  0.392100  0.336700  1.0  0.0926
  C  C365  1  0.861100  0.417300  0.373300  1.0  -0.0327
  C  C366  1  0.824200  0.444700  0.440500  1.0  0.7168
  C  C367  1  0.751200  0.347000  0.344800  1.0  0.7012
  C  C368  1  0.918000  0.354000  0.290900  1.0  0.4692
  C  C369  1  0.961200  0.361900  0.273500  1.0  -0.0261
  C  C370  1  0.961300  0.373000  0.230400  1.0  -0.174
  C  C371  1  0.171800  0.419100  0.596600  1.0  0.0231
  C  C372  1  0.209300  0.395700  0.603100  1.0  -0.0942
  C  C373  1  0.213900  0.370500  0.639700  1.0  -0.0295
  C  C374  1  0.180900  0.368700  0.669800  1.0  -0.1299
  C  C375  1  0.143400  0.392100  0.663300  1.0  0.0925
  C  C376  1  0.138900  0.417300  0.626700  1.0  -0.0336
  C  C377  1  0.175800  0.444700  0.559500  1.0  0.7169
  C  C378  1  0.248800  0.347000  0.655200  1.0  0.7014
  C  C379  1  0.082000  0.354000  0.709100  1.0  0.4705
  C  C380  1  0.038800  0.361900  0.726500  1.0  -0.0273
  C  C381  1  0.038700  0.373000  0.769600  1.0  -0.1734
  C  C382  1  0.171800  0.580900  0.403400  1.0  0.0235
  C  C383  1  0.209300  0.604300  0.396900  1.0  -0.0935
  C  C384  1  0.213900  0.629500  0.360300  1.0  -0.0295
  C  C385  1  0.180900  0.631300  0.330200  1.0  -0.1307
  C  C386  1  0.143400  0.607900  0.336700  1.0  0.0919
  C  C387  1  0.138900  0.582700  0.373300  1.0  -0.0329
  C  C388  1  0.175800  0.555300  0.440500  1.0  0.7171
  C  C389  1  0.248800  0.653000  0.344800  1.0  0.7016
  C  C390  1  0.082000  0.646000  0.290900  1.0  0.4685
  C  C391  1  0.038800  0.638100  0.273500  1.0  -0.0268
  C  C392  1  0.038700  0.627000  0.230400  1.0  -0.174
  C  C393  1  0.596600  0.828200  0.580900  1.0  0.0245
  C  C394  1  0.603100  0.790700  0.604300  1.0  -0.0933
  C  C395  1  0.639700  0.786100  0.629500  1.0  -0.0297
  C  C396  1  0.669800  0.819100  0.631300  1.0  -0.1338
  C  C397  1  0.663300  0.856600  0.607900  1.0  0.0922
  C  C398  1  0.626700  0.861100  0.582700  1.0  -0.033
  C  C399  1  0.559500  0.824200  0.555300  1.0  0.7167
  C  C400  1  0.655200  0.751200  0.653000  1.0  0.7032
  C  C401  1  0.709100  0.918000  0.646000  1.0  0.4691
  C  C402  1  0.726500  0.961200  0.638100  1.0  -0.0259
  C  C403  1  0.769600  0.961300  0.627000  1.0  -0.175
  C  C404  1  0.403400  0.828200  0.419100  1.0  0.0241
  C  C405  1  0.396900  0.790700  0.395700  1.0  -0.0937
  C  C406  1  0.360300  0.786100  0.370500  1.0  -0.0306
  C  C407  1  0.330200  0.819100  0.368700  1.0  -0.1348
  C  C408  1  0.336700  0.856600  0.392100  1.0  0.0918
  C  C409  1  0.373300  0.861100  0.417300  1.0  -0.0331
  C  C410  1  0.440500  0.824200  0.444700  1.0  0.7162
  C  C411  1  0.344800  0.751200  0.347000  1.0  0.7021
  C  C412  1  0.290900  0.918000  0.354000  1.0  0.47
  C  C413  1  0.273500  0.961200  0.361900  1.0  -0.0252
  C  C414  1  0.230400  0.961300  0.373000  1.0  -0.1754
  C  C415  1  0.596600  0.171800  0.419100  1.0  0.0249
  C  C416  1  0.603100  0.209300  0.395700  1.0  -0.0947
  C  C417  1  0.639700  0.213900  0.370500  1.0  -0.0302
  C  C418  1  0.669800  0.180900  0.368700  1.0  -0.1334
  C  C419  1  0.663300  0.143400  0.392100  1.0  0.092
  C  C420  1  0.626700  0.138900  0.417300  1.0  -0.0312
  C  C421  1  0.559500  0.175800  0.444700  1.0  0.7165
  C  C422  1  0.655200  0.248800  0.347000  1.0  0.7027
  C  C423  1  0.709100  0.082000  0.354000  1.0  0.4681
  C  C424  1  0.726500  0.038800  0.361900  1.0  -0.0253
  C  C425  1  0.769600  0.038700  0.373000  1.0  -0.1763
  C  C426  1  0.403400  0.171800  0.580900  1.0  0.0243
  C  C427  1  0.396900  0.209300  0.604300  1.0  -0.0937
  C  C428  1  0.360300  0.213900  0.629500  1.0  -0.0297
  C  C429  1  0.330200  0.180900  0.631300  1.0  -0.1349
  C  C430  1  0.336700  0.143400  0.607900  1.0  0.0916
  C  C431  1  0.373300  0.138900  0.582700  1.0  -0.0309
  C  C432  1  0.440500  0.175800  0.555300  1.0  0.7163
  C  C433  1  0.344800  0.248800  0.653000  1.0  0.7022
  C  C434  1  0.290900  0.082000  0.646000  1.0  0.4682
  C  C435  1  0.273500  0.038800  0.638100  1.0  -0.026
  C  C436  1  0.230400  0.038700  0.627000  1.0  -0.1758
  C  C437  1  0.356800  0.295500  0.000000  1.0  -0.0423
  C  C438  1  0.378800  0.208700  0.000000  1.0  -0.0956
  C  C439  1  0.643200  0.704500  0.000000  1.0  -0.042
  C  C440  1  0.621200  0.791300  0.000000  1.0  -0.0939
  C  C441  1  0.643200  0.295500  0.000000  1.0  -0.0413
  C  C442  1  0.621200  0.208700  0.000000  1.0  -0.0964
  C  C443  1  0.356800  0.704500  0.000000  1.0  -0.0429
  C  C444  1  0.378800  0.791300  0.000000  1.0  -0.0927
  C  C445  1  0.000000  0.356800  0.295500  1.0  -0.0461
  C  C446  1  0.000000  0.378800  0.208700  1.0  -0.093
  C  C447  1  0.000000  0.643200  0.704500  1.0  -0.0454
  C  C448  1  0.000000  0.621200  0.791300  1.0  -0.0934
  C  C449  1  0.000000  0.643200  0.295500  1.0  -0.0459
  C  C450  1  0.000000  0.621200  0.208700  1.0  -0.0923
  C  C451  1  0.000000  0.356800  0.704500  1.0  -0.0449
  C  C452  1  0.000000  0.378800  0.791300  1.0  -0.0944
  C  C453  1  0.295500  0.000000  0.356800  1.0  -0.0446
  C  C454  1  0.208700  0.000000  0.378800  1.0  -0.0965
  C  C455  1  0.704500  0.000000  0.643200  1.0  -0.0434
  C  C456  1  0.791300  0.000000  0.621200  1.0  -0.094
  C  C457  1  0.295500  0.000000  0.643200  1.0  -0.0436
  C  C458  1  0.208700  0.000000  0.621200  1.0  -0.0961
  C  C459  1  0.704500  0.000000  0.356800  1.0  -0.0438
  C  C460  1  0.791300  0.000000  0.378800  1.0  -0.0938
  N  N461  1  0.385400  0.310100  0.103400  1.0  -0.4694
  N  N462  1  0.614600  0.689900  0.103400  1.0  -0.4698
  N  N463  1  0.614600  0.310100  0.896600  1.0  -0.4695
  N  N464  1  0.385400  0.689900  0.896600  1.0  -0.4695
  N  N465  1  0.103400  0.385400  0.310100  1.0  -0.4699
  N  N466  1  0.103400  0.614600  0.689900  1.0  -0.4718
  N  N467  1  0.896600  0.614600  0.310100  1.0  -0.4715
  N  N468  1  0.896600  0.385400  0.689900  1.0  -0.4694
  N  N469  1  0.310100  0.103400  0.385400  1.0  -0.4698
  N  N470  1  0.689900  0.103400  0.614600  1.0  -0.4687
  N  N471  1  0.310100  0.896600  0.614600  1.0  -0.4682
  N  N472  1  0.689900  0.896600  0.385400  1.0  -0.4698
  N  N473  1  0.614600  0.689900  0.896600  1.0  -0.4698
  N  N474  1  0.385400  0.310100  0.896600  1.0  -0.4693
  N  N475  1  0.385400  0.689900  0.103400  1.0  -0.4699
  N  N476  1  0.614600  0.310100  0.103400  1.0  -0.4694
  N  N477  1  0.896600  0.614600  0.689900  1.0  -0.4713
  N  N478  1  0.896600  0.385400  0.310100  1.0  -0.4696
  N  N479  1  0.103400  0.385400  0.689900  1.0  -0.4698
  N  N480  1  0.103400  0.614600  0.310100  1.0  -0.4719
  N  N481  1  0.689900  0.896600  0.614600  1.0  -0.4685
  N  N482  1  0.310100  0.896600  0.385400  1.0  -0.4698
  N  N483  1  0.689900  0.103400  0.385400  1.0  -0.47
  N  N484  1  0.310100  0.103400  0.614600  1.0  -0.4683
  O  O485  1  0.457200  0.458100  0.140300  1.0  -0.6246
  O  O486  1  0.456200  0.456900  0.211300  1.0  -0.6125
  O  O487  1  0.358100  0.358500  0.285800  1.0  -0.6185
  O  O488  1  0.315100  0.317800  0.247300  1.0  -0.619
  O  O489  1  0.321800  0.276700  0.103800  1.0  -0.4919
  O  O490  1  0.542800  0.541900  0.140300  1.0  -0.623
  O  O491  1  0.543800  0.543100  0.211300  1.0  -0.612
  O  O492  1  0.641900  0.641500  0.285800  1.0  -0.6186
  O  O493  1  0.684900  0.682200  0.247300  1.0  -0.6192
  O  O494  1  0.678200  0.723300  0.103800  1.0  -0.4961
  O  O495  1  0.542800  0.458100  0.859700  1.0  -0.6233
  O  O496  1  0.543800  0.456900  0.788700  1.0  -0.6115
  O  O497  1  0.641900  0.358500  0.714200  1.0  -0.6201
  O  O498  1  0.684900  0.317800  0.752700  1.0  -0.6199
  O  O499  1  0.678200  0.276700  0.896200  1.0  -0.4951
  O  O500  1  0.457200  0.541900  0.859700  1.0  -0.6251
  O  O501  1  0.456200  0.543100  0.788700  1.0  -0.6115
  O  O502  1  0.358100  0.641500  0.714200  1.0  -0.6197
  O  O503  1  0.315100  0.682200  0.752700  1.0  -0.6182
  O  O504  1  0.321800  0.723300  0.896200  1.0  -0.493
  O  O505  1  0.140300  0.457200  0.458100  1.0  -0.6206
  O  O506  1  0.211300  0.456200  0.456900  1.0  -0.6093
  O  O507  1  0.285800  0.358100  0.358500  1.0  -0.6191
  O  O508  1  0.247300  0.315100  0.317800  1.0  -0.6184
  O  O509  1  0.103800  0.321800  0.276700  1.0  -0.4993
  O  O510  1  0.140300  0.542800  0.541900  1.0  -0.6197
  O  O511  1  0.211300  0.543800  0.543100  1.0  -0.6096
  O  O512  1  0.285800  0.641900  0.641500  1.0  -0.6194
  O  O513  1  0.247300  0.684900  0.682200  1.0  -0.6214
  O  O514  1  0.103800  0.678200  0.723300  1.0  -0.4998
  O  O515  1  0.859700  0.542800  0.458100  1.0  -0.6205
  O  O516  1  0.788700  0.543800  0.456900  1.0  -0.6099
  O  O517  1  0.714200  0.641900  0.358500  1.0  -0.6203
  O  O518  1  0.752700  0.684900  0.317800  1.0  -0.6212
  O  O519  1  0.896200  0.678200  0.276700  1.0  -0.4994
  O  O520  1  0.859700  0.457200  0.541900  1.0  -0.6211
  O  O521  1  0.788700  0.456200  0.543100  1.0  -0.6095
  O  O522  1  0.714200  0.358100  0.641500  1.0  -0.6195
  O  O523  1  0.752700  0.315100  0.682200  1.0  -0.62
  O  O524  1  0.896200  0.321800  0.723300  1.0  -0.5
  O  O525  1  0.458100  0.140300  0.457200  1.0  -0.6214
  O  O526  1  0.456900  0.211300  0.456200  1.0  -0.6096
  O  O527  1  0.358500  0.285800  0.358100  1.0  -0.6186
  O  O528  1  0.317800  0.247300  0.315100  1.0  -0.617
  O  O529  1  0.276700  0.103800  0.321800  1.0  -0.5047
  O  O530  1  0.541900  0.140300  0.542800  1.0  -0.6226
  O  O531  1  0.543100  0.211300  0.543800  1.0  -0.6097
  O  O532  1  0.641500  0.285800  0.641900  1.0  -0.6189
  O  O533  1  0.682200  0.247300  0.684900  1.0  -0.6172
  O  O534  1  0.723300  0.103800  0.678200  1.0  -0.5009
  O  O535  1  0.458100  0.859700  0.542800  1.0  -0.623
  O  O536  1  0.456900  0.788700  0.543800  1.0  -0.6102
  O  O537  1  0.358500  0.714200  0.641900  1.0  -0.6188
  O  O538  1  0.317800  0.752700  0.684900  1.0  -0.6164
  O  O539  1  0.276700  0.896200  0.678200  1.0  -0.5026
  O  O540  1  0.541900  0.859700  0.457200  1.0  -0.6232
  O  O541  1  0.543100  0.788700  0.456200  1.0  -0.6111
  O  O542  1  0.641500  0.714200  0.358100  1.0  -0.6191
  O  O543  1  0.682200  0.752700  0.315100  1.0  -0.6194
  O  O544  1  0.723300  0.896200  0.321800  1.0  -0.5027
  O  O545  1  0.542800  0.541900  0.859700  1.0  -0.6235
  O  O546  1  0.543800  0.543100  0.788700  1.0  -0.6117
  O  O547  1  0.641900  0.641500  0.714200  1.0  -0.62
  O  O548  1  0.684900  0.682200  0.752700  1.0  -0.6185
  O  O549  1  0.678200  0.723300  0.896200  1.0  -0.4953
  O  O550  1  0.457200  0.458100  0.859700  1.0  -0.625
  O  O551  1  0.456200  0.456900  0.788700  1.0  -0.611
  O  O552  1  0.358100  0.358500  0.714200  1.0  -0.6201
  O  O553  1  0.315100  0.317800  0.752700  1.0  -0.6189
  O  O554  1  0.321800  0.276700  0.896200  1.0  -0.4917
  O  O555  1  0.457200  0.541900  0.140300  1.0  -0.6244
  O  O556  1  0.456200  0.543100  0.211300  1.0  -0.6125
  O  O557  1  0.358100  0.641500  0.285800  1.0  -0.6185
  O  O558  1  0.315100  0.682200  0.247300  1.0  -0.6182
  O  O559  1  0.321800  0.723300  0.103800  1.0  -0.4938
  O  O560  1  0.542800  0.458100  0.140300  1.0  -0.6237
  O  O561  1  0.543800  0.456900  0.211300  1.0  -0.6118
  O  O562  1  0.641900  0.358500  0.285800  1.0  -0.6184
  O  O563  1  0.684900  0.317800  0.247300  1.0  -0.6203
  O  O564  1  0.678200  0.276700  0.103800  1.0  -0.4953
  O  O565  1  0.859700  0.542800  0.541900  1.0  -0.6203
  O  O566  1  0.788700  0.543800  0.543100  1.0  -0.61
  O  O567  1  0.714200  0.641900  0.641500  1.0  -0.6198
  O  O568  1  0.752700  0.684900  0.682200  1.0  -0.6215
  O  O569  1  0.896200  0.678200  0.723300  1.0  -0.4994
  O  O570  1  0.859700  0.457200  0.458100  1.0  -0.6219
  O  O571  1  0.788700  0.456200  0.456900  1.0  -0.6094
  O  O572  1  0.714200  0.358100  0.358500  1.0  -0.6201
  O  O573  1  0.752700  0.315100  0.317800  1.0  -0.619
  O  O574  1  0.896200  0.321800  0.276700  1.0  -0.4993
  O  O575  1  0.140300  0.457200  0.541900  1.0  -0.6208
  O  O576  1  0.211300  0.456200  0.543100  1.0  -0.6091
  O  O577  1  0.285800  0.358100  0.641500  1.0  -0.6188
  O  O578  1  0.247300  0.315100  0.682200  1.0  -0.6199
  O  O579  1  0.103800  0.321800  0.723300  1.0  -0.5005
  O  O580  1  0.140300  0.542800  0.458100  1.0  -0.62
  O  O581  1  0.211300  0.543800  0.456900  1.0  -0.6097
  O  O582  1  0.285800  0.641900  0.358500  1.0  -0.6197
  O  O583  1  0.247300  0.684900  0.317800  1.0  -0.6209
  O  O584  1  0.103800  0.678200  0.276700  1.0  -0.4997
  O  O585  1  0.541900  0.859700  0.542800  1.0  -0.6238
  O  O586  1  0.543100  0.788700  0.543800  1.0  -0.6104
  O  O587  1  0.641500  0.714200  0.641900  1.0  -0.619
  O  O588  1  0.682200  0.752700  0.684900  1.0  -0.6172
  O  O589  1  0.723300  0.896200  0.678200  1.0  -0.5016
  O  O590  1  0.458100  0.859700  0.457200  1.0  -0.623
  O  O591  1  0.456900  0.788700  0.456200  1.0  -0.611
  O  O592  1  0.358500  0.714200  0.358100  1.0  -0.6186
  O  O593  1  0.317800  0.752700  0.315100  1.0  -0.6172
  O  O594  1  0.276700  0.896200  0.321800  1.0  -0.5037
  O  O595  1  0.541900  0.140300  0.457200  1.0  -0.6225
  O  O596  1  0.543100  0.211300  0.456200  1.0  -0.6096
  O  O597  1  0.641500  0.285800  0.358100  1.0  -0.6192
  O  O598  1  0.682200  0.247300  0.315100  1.0  -0.6188
  O  O599  1  0.723300  0.103800  0.321800  1.0  -0.5034
  O  O600  1  0.458100  0.140300  0.542800  1.0  -0.6223
  O  O601  1  0.456900  0.211300  0.543800  1.0  -0.6094
  O  O602  1  0.358500  0.285800  0.641900  1.0  -0.6182
  O  O603  1  0.317800  0.247300  0.684900  1.0  -0.6161
  O  O604  1  0.276700  0.103800  0.678200  1.0  -0.5028
