# generated using pymatgen
data_Mn2H7C13O8
_symmetry_space_group_name_H-M   'P 1'
_cell_length_a   8.94730000
_cell_length_b   12.32230000
_cell_length_c   20.06510000
_cell_angle_alpha   85.35710000
_cell_angle_beta   77.11740000
_cell_angle_gamma   68.71210000
_symmetry_Int_Tables_number   1
_chemical_formula_structural   Mn2H7C13O8
_chemical_formula_sum   'Mn8 H28 C52 O32'
_cell_volume   2009.37630564
_cell_formula_units_Z   4
loop_
 _symmetry_equiv_pos_site_id
 _symmetry_equiv_pos_as_xyz
  1  'x, y, z'
loop_
 _atom_site_type_symbol
 _atom_site_label
 _atom_site_symmetry_multiplicity
 _atom_site_fract_x
 _atom_site_fract_y
 _atom_site_fract_z
 _atom_site_occupancy
 _atom_site_charge
  Mn  Mn1  1  0.144420  0.469840  0.911400  1.0  1.1466
  Mn  Mn2  1  0.364260  0.030160  0.411400  1.0  1.1472
  Mn  Mn3  1  0.615390  0.160700  0.473300  1.0  1.0749
  Mn  Mn4  1  0.249390  0.839300  0.526700  1.0  1.0747
  Mn  Mn5  1  0.838690  0.660700  0.026700  1.0  1.0749
  Mn  Mn6  1  0.805820  0.969840  0.588600  1.0  1.1493
  Mn  Mn7  1  0.526090  0.339300  0.973300  1.0  1.075
  Mn  Mn8  1  0.525660  0.530160  0.088600  1.0  1.1525
  H  H9  1  0.724500  0.425000  0.217400  1.0  0.1128
  H  H10  1  0.710500  0.887800  0.169800  1.0  0.1053
  H  H11  1  0.154800  0.830800  0.025800  1.0  0.1153
  H  H12  1  0.665100  0.246000  0.735200  1.0  0.1065
  H  H13  1  0.150300  0.746000  0.764800  1.0  0.1069
  H  H14  1  0.819900  0.963800  0.911000  1.0  0.1077
  H  H15  1  0.704000  0.500000  0.500000  1.0  0.0975
  H  H16  1  0.999000  0.094000  0.412200  1.0  0.0026
  H  H17  1  0.505200  0.906000  0.587800  1.0  0.003
  H  H18  1  0.630300  0.387800  0.330200  1.0  0.1054
  H  H19  1  0.366900  0.575000  0.782600  1.0  0.1115
  H  H20  1  0.646300  0.754000  0.264800  1.0  0.1071
  H  H21  1  0.533700  0.536200  0.411000  1.0  0.1079
  H  H22  1  0.843000  0.406000  0.912200  1.0  0.0023
  H  H23  1  0.480900  0.463800  0.589000  1.0  0.1078
  H  H24  1  0.954000  0.000000  0.000000  1.0  0.0975
  H  H25  1  0.735600  0.669200  0.525800  1.0  0.1156
  H  H26  1  0.161200  0.594000  0.087800  1.0  0.0023
  H  H27  1  0.691900  0.925000  0.282600  1.0  0.1118
  H  H28  1  0.011400  0.169200  0.974200  1.0  0.1154
  H  H29  1  0.694700  0.036200  0.089000  1.0  0.1089
  H  H30  1  0.464000  0.000000  0.000000  1.0  0.1941
  H  H31  1  0.214000  0.500000  0.500000  1.0  0.1941
  H  H32  1  0.899500  0.075000  0.717400  1.0  0.1129
  H  H33  1  0.348300  0.612200  0.669800  1.0  0.1055
  H  H34  1  0.768100  0.112200  0.830200  1.0  0.1052
  H  H35  1  0.930600  0.330800  0.474200  1.0  0.1147
  H  H36  1  0.661100  0.254000  0.235200  1.0  0.1067
  C  C37  1  0.527480  0.384500  0.844140  1.0  0.6745
  C  C38  1  0.178300  0.898580  0.015620  1.0  -0.0378
  C  C39  1  0.669150  0.180920  0.222180  1.0  -0.0069
  C  C40  1  0.600070  0.319080  0.722180  1.0  -0.0068
  C  C41  1  0.000910  0.713000  0.532980  1.0  0.7433
  C  C42  1  0.005180  0.039040  0.447000  1.0  0.6683
  C  C43  1  0.695520  0.593620  0.229740  1.0  -0.1096
  C  C44  1  0.202180  0.539040  0.053000  1.0  0.6699
  C  C45  1  0.118100  0.500000  0.500000  1.0  0.0359
  C  C46  1  0.843070  0.038320  0.817140  1.0  -0.1165
  C  C47  1  0.689000  0.983780  0.250220  1.0  -0.0599
  C  C48  1  0.874860  0.949720  0.865560  1.0  -0.0271
  C  C49  1  0.012310  0.741620  0.896960  1.0  0.7353
  C  C50  1  0.659270  0.241620  0.603040  1.0  0.7348
  C  C51  1  0.490420  0.449720  0.634440  1.0  -0.0271
  C  C52  1  0.574580  0.550280  0.365560  1.0  -0.0271
  C  C53  1  0.099940  0.398280  0.484040  1.0  -0.177
  C  C54  1  0.641330  0.680920  0.277820  1.0  -0.0062
  C  C55  1  0.039140  0.906380  0.729740  1.0  -0.1095
  C  C56  1  0.368100  0.000000  0.000000  1.0  0.0359
  C  C57  1  0.756120  0.615500  0.155860  1.0  0.6726
  C  C58  1  0.246890  0.287000  0.467020  1.0  0.7429
  C  C59  1  0.072250  0.819080  0.777820  1.0  -0.0056
  C  C60  1  0.422780  0.516220  0.750220  1.0  -0.0602
  C  C61  1  0.943920  0.398580  0.484380  1.0  -0.0373
  C  C62  1  0.518880  0.406380  0.770260  1.0  -0.1087
  C  C63  1  0.923000  0.016220  0.749780  1.0  -0.0598
  C  C64  1  0.661980  0.115500  0.344140  1.0  0.6745
  C  C65  1  0.579170  0.660320  0.345540  1.0  -0.1519
  C  C66  1  0.689220  0.483780  0.249780  1.0  -0.0589
  C  C67  1  0.650890  0.258380  0.103040  1.0  0.735
  C  C68  1  0.503930  0.758380  0.396960  1.0  0.7346
  C  C69  1  0.092500  0.101420  0.984380  1.0  -0.0368
  C  C70  1  0.698530  0.961680  0.182860  1.0  -0.1158
  C  C71  1  0.585030  0.339680  0.654460  1.0  -0.1534
  C  C72  1  0.674710  0.160320  0.154460  1.0  -0.1533
  C  C73  1  0.058500  0.000000  0.000000  1.0  -0.085
  C  C74  1  0.794220  0.460960  0.947000  1.0  0.6693
  C  C75  1  0.121620  0.884500  0.655860  1.0  0.6727
  C  C76  1  0.491220  0.960960  0.553000  1.0  0.6702
  C  C77  1  0.675260  0.093620  0.270260  1.0  -0.1088
  C  C78  1  0.690140  0.050280  0.134440  1.0  -0.0271
  C  C79  1  0.333980  0.898280  0.015960  1.0  -0.1762
  C  C80  1  0.989490  0.839680  0.845540  1.0  -0.1521
  C  C81  1  0.808500  0.500000  0.500000  1.0  -0.085
  C  C82  1  0.826880  0.601420  0.515620  1.0  -0.0369
  C  C83  1  0.982260  0.601720  0.515960  1.0  -0.1767
  C  C84  1  0.463910  0.787000  0.032980  1.0  0.7426
  C  C85  1  0.248220  0.101720  0.984040  1.0  -0.1777
  C  C86  1  0.631390  0.461680  0.317140  1.0  -0.1139
  C  C87  1  0.410210  0.538320  0.682860  1.0  -0.1165
  C  C88  1  0.283890  0.213000  0.967020  1.0  0.7435
  O  O89  1  0.657660  0.233800  0.042480  1.0  -0.6071
  O  O90  1  0.933940  0.766200  0.957520  1.0  -0.6058
  O  O91  1  0.872700  0.036080  0.481720  1.0  -0.6549
  O  O92  1  0.349430  0.475860  0.045680  1.0  -0.6598
  O  O93  1  0.104420  0.536080  0.018280  1.0  -0.6562
  O  O94  1  0.143300  0.713160  0.524040  1.0  -0.6097
  O  O95  1  0.494150  0.857480  0.375020  1.0  -0.6087
  O  O96  1  0.264520  0.813420  0.638740  1.0  -0.5971
  O  O97  1  0.402860  0.440440  0.889040  1.0  -0.6685
  O  O98  1  0.716680  0.186580  0.361260  1.0  -0.5978
  O  O99  1  0.417340  0.213160  0.975960  1.0  -0.6091
  O  O100  1  0.871200  0.796340  0.555460  1.0  -0.6276
  O  O101  1  0.176660  0.296340  0.944540  1.0  -0.628
  O  O102  1  0.145110  0.975860  0.454320  1.0  -0.6588
  O  O103  1  0.450140  0.733800  0.457520  1.0  -0.6056
  O  O104  1  0.658780  0.463920  0.981720  1.0  -0.6549
  O  O105  1  0.726650  0.142520  0.624980  1.0  -0.6082
  O  O106  1  0.827940  0.686580  0.138740  1.0  -0.5966
  O  O107  1  0.380500  0.286840  0.475960  1.0  -0.609
  O  O108  1  0.870970  0.524140  0.954320  1.0  -0.6595
  O  O109  1  0.101630  0.642520  0.875020  1.0  -0.6067
  O  O110  1  0.593300  0.059560  0.389040  1.0  -0.6668
  O  O111  1  0.417540  0.703660  0.055460  1.0  -0.6283
  O  O112  1  0.732340  0.559560  0.110960  1.0  -0.6673
  O  O113  1  0.041900  0.940440  0.610960  1.0  -0.668
  O  O114  1  0.641460  0.266200  0.542480  1.0  -0.6068
  O  O115  1  0.653260  0.313420  0.861260  1.0  -0.5979
  O  O116  1  0.619170  0.357480  0.124980  1.0  -0.609
  O  O117  1  0.606460  0.786840  0.024040  1.0  -0.609
  O  O118  1  0.390500  0.963920  0.518280  1.0  -0.6555
  O  O119  1  0.223000  0.203660  0.444540  1.0  -0.6276
  O  O120  1  0.575290  0.024140  0.545680  1.0  -0.6603
