# generated using pymatgen
data_ZnH7C15O4
_symmetry_space_group_name_H-M   'P 1'
_cell_length_a   27.06300000
_cell_length_b   27.06300000
_cell_length_c   16.10700000
_cell_angle_alpha   90.00000000
_cell_angle_beta   90.00000000
_cell_angle_gamma   120.00000000
_symmetry_Int_Tables_number   1
_chemical_formula_structural   ZnH7C15O4
_chemical_formula_sum   'Zn18 H126 C270 O72'
_cell_volume   10216.38299333
_cell_formula_units_Z   18
loop_
 _symmetry_equiv_pos_site_id
 _symmetry_equiv_pos_as_xyz
  1  'x, y, z'
loop_
 _atom_site_type_symbol
 _atom_site_label
 _atom_site_symmetry_multiplicity
 _atom_site_fract_x
 _atom_site_fract_y
 _atom_site_fract_z
 _atom_site_occupancy
 _atom_site_charge
  Zn  Zn1  1  0.134430  0.268860  0.341170  1.0  1.1334
  Zn  Zn2  1  0.801100  0.602190  0.674500  1.0  1.1396
  Zn  Zn3  1  0.467760  0.935530  0.007840  1.0  1.1319
  Zn  Zn4  1  0.731140  0.865570  0.341170  1.0  1.1294
  Zn  Zn5  1  0.397810  0.198900  0.674500  1.0  1.1392
  Zn  Zn6  1  0.064470  0.532240  0.007840  1.0  1.1322
  Zn  Zn7  1  0.134430  0.865570  0.341170  1.0  1.1252
  Zn  Zn8  1  0.801100  0.198900  0.674500  1.0  1.1223
  Zn  Zn9  1  0.467760  0.532240  0.007840  1.0  1.1392
  Zn  Zn10  1  0.268860  0.134430  0.658830  1.0  1.1291
  Zn  Zn11  1  0.935530  0.467760  0.992160  1.0  1.1293
  Zn  Zn12  1  0.602190  0.801100  0.325500  1.0  1.1402
  Zn  Zn13  1  0.865570  0.731140  0.658830  1.0  1.1288
  Zn  Zn14  1  0.532240  0.064470  0.992160  1.0  1.1296
  Zn  Zn15  1  0.198900  0.397810  0.325500  1.0  1.1382
  Zn  Zn16  1  0.865570  0.134430  0.658830  1.0  1.1303
  Zn  Zn17  1  0.532240  0.467760  0.992160  1.0  1.1409
  Zn  Zn18  1  0.198900  0.801100  0.325500  1.0  1.1267
  H  H19  1  0.253400  0.242600  0.214400  1.0  0.1138
  H  H20  1  0.290600  0.232000  0.023300  1.0  0.094
  H  H21  1  0.257600  0.172200  0.911500  1.0  0.0974
  H  H22  1  0.920070  0.575930  0.547730  1.0  0.1154
  H  H23  1  0.957270  0.565330  0.356630  1.0  0.094
  H  H24  1  0.924270  0.505530  0.244830  1.0  0.0974
  H  H25  1  0.586730  0.909270  0.881070  1.0  0.1136
  H  H26  1  0.623930  0.898670  0.689970  1.0  0.0938
  H  H27  1  0.590930  0.838870  0.578170  1.0  0.0974
  H  H28  1  0.757400  0.010800  0.214400  1.0  0.1144
  H  H29  1  0.768000  0.058600  0.023300  1.0  0.0942
  H  H30  1  0.827800  0.085400  0.911500  1.0  0.0972
  H  H31  1  0.424070  0.344130  0.547730  1.0  0.1144
  H  H32  1  0.434670  0.391930  0.356630  1.0  0.0942
  H  H33  1  0.494470  0.418730  0.244830  1.0  0.0972
  H  H34  1  0.090730  0.677470  0.881070  1.0  0.1144
  H  H35  1  0.101330  0.725270  0.689970  1.0  0.0943
  H  H36  1  0.161130  0.752070  0.578170  1.0  0.0972
  H  H37  1  0.989200  0.746600  0.214400  1.0  0.1135
  H  H38  1  0.941400  0.709400  0.023300  1.0  0.0939
  H  H39  1  0.914600  0.742400  0.911500  1.0  0.0987
  H  H40  1  0.655870  0.079930  0.547730  1.0  0.1145
  H  H41  1  0.608070  0.042730  0.356630  1.0  0.0938
  H  H42  1  0.581270  0.075730  0.244830  1.0  0.0987
  H  H43  1  0.322530  0.413270  0.881070  1.0  0.1158
  H  H44  1  0.274730  0.376070  0.689970  1.0  0.0941
  H  H45  1  0.247930  0.409070  0.578170  1.0  0.0987
  H  H46  1  0.242600  0.253400  0.785600  1.0  0.1131
  H  H47  1  0.232000  0.290600  0.976700  1.0  0.0939
  H  H48  1  0.172200  0.257600  0.088500  1.0  0.0989
  H  H49  1  0.909270  0.586730  0.118930  1.0  0.1128
  H  H50  1  0.898670  0.623930  0.310030  1.0  0.0937
  H  H51  1  0.838870  0.590930  0.421830  1.0  0.0989
  H  H52  1  0.575930  0.920070  0.452270  1.0  0.1149
  H  H53  1  0.565330  0.957270  0.643370  1.0  0.0939
  H  H54  1  0.505530  0.924270  0.755170  1.0  0.0989
  H  H55  1  0.010800  0.757400  0.785600  1.0  0.1148
  H  H56  1  0.058600  0.768000  0.976700  1.0  0.0937
  H  H57  1  0.085400  0.827800  0.088500  1.0  0.0978
  H  H58  1  0.677470  0.090730  0.118930  1.0  0.1148
  H  H59  1  0.725270  0.101330  0.310030  1.0  0.0938
  H  H60  1  0.752070  0.161130  0.421830  1.0  0.0978
  H  H61  1  0.344130  0.424070  0.452270  1.0  0.1148
  H  H62  1  0.391930  0.434670  0.643370  1.0  0.0937
  H  H63  1  0.418730  0.494470  0.755170  1.0  0.0978
  H  H64  1  0.746600  0.989200  0.785600  1.0  0.114
  H  H65  1  0.709400  0.941400  0.976700  1.0  0.0941
  H  H66  1  0.742400  0.914600  0.088500  1.0  0.0965
  H  H67  1  0.413270  0.322530  0.118930  1.0  0.1157
  H  H68  1  0.376070  0.274730  0.310030  1.0  0.0943
  H  H69  1  0.409070  0.247930  0.421830  1.0  0.0965
  H  H70  1  0.079930  0.655870  0.452270  1.0  0.1143
  H  H71  1  0.042730  0.608070  0.643370  1.0  0.0941
  H  H72  1  0.075730  0.581270  0.755170  1.0  0.0965
  H  H73  1  0.746600  0.757400  0.785600  1.0  0.114
  H  H74  1  0.709400  0.768000  0.976700  1.0  0.0938
  H  H75  1  0.742400  0.827800  0.088500  1.0  0.0974
  H  H76  1  0.413270  0.090730  0.118930  1.0  0.1139
  H  H77  1  0.376070  0.101330  0.310030  1.0  0.0935
  H  H78  1  0.409070  0.161130  0.421830  1.0  0.0974
  H  H79  1  0.079930  0.424070  0.452270  1.0  0.1151
  H  H80  1  0.042730  0.434670  0.643370  1.0  0.0938
  H  H81  1  0.075730  0.494470  0.755170  1.0  0.0974
  H  H82  1  0.242600  0.989200  0.785600  1.0  0.1139
  H  H83  1  0.232000  0.941400  0.976700  1.0  0.0941
  H  H84  1  0.172200  0.914600  0.088500  1.0  0.0968
  H  H85  1  0.909270  0.322530  0.118930  1.0  0.1139
  H  H86  1  0.898670  0.274730  0.310030  1.0  0.0942
  H  H87  1  0.838870  0.247930  0.421830  1.0  0.0968
  H  H88  1  0.575930  0.655870  0.452270  1.0  0.1139
  H  H89  1  0.565330  0.608070  0.643370  1.0  0.0941
  H  H90  1  0.505530  0.581270  0.755170  1.0  0.0968
  H  H91  1  0.010800  0.253400  0.785600  1.0  0.1132
  H  H92  1  0.058600  0.290600  0.976700  1.0  0.0928
  H  H93  1  0.085400  0.257600  0.088500  1.0  0.0988
  H  H94  1  0.677470  0.586730  0.118930  1.0  0.1156
  H  H95  1  0.725270  0.623930  0.310030  1.0  0.093
  H  H96  1  0.752070  0.590930  0.421830  1.0  0.0988
  H  H97  1  0.344130  0.920070  0.452270  1.0  0.1134
  H  H98  1  0.391930  0.957270  0.643370  1.0  0.0927
  H  H99  1  0.418730  0.924270  0.755170  1.0  0.0988
  H  H100  1  0.757400  0.746600  0.214400  1.0  0.1135
  H  H101  1  0.768000  0.709400  0.023300  1.0  0.0934
  H  H102  1  0.827800  0.742400  0.911500  1.0  0.0989
  H  H103  1  0.424070  0.079930  0.547730  1.0  0.115
  H  H104  1  0.434670  0.042730  0.356630  1.0  0.0934
  H  H105  1  0.494470  0.075730  0.244830  1.0  0.0989
  H  H106  1  0.090730  0.413270  0.881070  1.0  0.1136
  H  H107  1  0.101330  0.376070  0.689970  1.0  0.0931
  H  H108  1  0.161130  0.409070  0.578170  1.0  0.0989
  H  H109  1  0.989200  0.242600  0.214400  1.0  0.114
  H  H110  1  0.941400  0.232000  0.023300  1.0  0.0938
  H  H111  1  0.914600  0.172200  0.911500  1.0  0.0974
  H  H112  1  0.655870  0.575930  0.547730  1.0  0.114
  H  H113  1  0.608070  0.565330  0.356630  1.0  0.0938
  H  H114  1  0.581270  0.505530  0.244830  1.0  0.0974
  H  H115  1  0.322530  0.909270  0.881070  1.0  0.1141
  H  H116  1  0.274730  0.898670  0.689970  1.0  0.0939
  H  H117  1  0.247930  0.838870  0.578170  1.0  0.0974
  H  H118  1  0.253400  0.010800  0.214400  1.0  0.1133
  H  H119  1  0.290600  0.058600  0.023300  1.0  0.0943
  H  H120  1  0.257600  0.085400  0.911500  1.0  0.097
  H  H121  1  0.920070  0.344130  0.547730  1.0  0.1141
  H  H122  1  0.957270  0.391930  0.356630  1.0  0.0942
  H  H123  1  0.924270  0.418730  0.244830  1.0  0.097
  H  H124  1  0.586730  0.677470  0.881070  1.0  0.1153
  H  H125  1  0.623930  0.725270  0.689970  1.0  0.0945
  H  H126  1  0.590930  0.752070  0.578170  1.0  0.097
  H  H127  1  0.333333  0.411720  0.166670  1.0  0.1199
  H  H128  1  0.000000  0.745050  0.500000  1.0  0.1197
  H  H129  1  0.588280  0.921620  0.166670  1.0  0.1191
  H  H130  1  0.254950  0.254950  0.500000  1.0  0.1186
  H  H131  1  0.078380  0.666667  0.166670  1.0  0.1207
  H  H132  1  0.745050  0.000000  0.500000  1.0  0.1194
  H  H133  1  0.411720  0.333333  0.833330  1.0  0.1196
  H  H134  1  0.921620  0.588280  0.833330  1.0  0.1191
  H  H135  1  0.666667  0.078380  0.833330  1.0  0.1204
  H  H136  1  0.666667  0.588280  0.833330  1.0  0.1193
  H  H137  1  0.333333  0.921620  0.166670  1.0  0.1199
  H  H138  1  0.411720  0.078380  0.833330  1.0  0.1203
  H  H139  1  0.745050  0.745050  0.500000  1.0  0.119
  H  H140  1  0.921620  0.333333  0.833330  1.0  0.1207
  H  H141  1  0.588280  0.666667  0.166670  1.0  0.1202
  H  H142  1  0.254950  0.000000  0.500000  1.0  0.1198
  H  H143  1  0.078380  0.411720  0.166670  1.0  0.1203
  H  H144  1  0.000000  0.254950  0.500000  1.0  0.1192
  C  C145  1  0.286700  0.327490  0.196400  1.0  -0.1305
  C  C146  1  0.286200  0.276240  0.195400  1.0  -0.081
  C  C147  1  0.237150  0.330700  0.233600  1.0  0.6924
  C  C148  1  0.312630  0.182800  0.097600  1.0  0.0187
  C  C149  1  0.291010  0.197100  0.024700  1.0  -0.1058
  C  C150  1  0.271500  0.161800  0.958600  1.0  -0.1043
  C  C151  1  0.953370  0.660820  0.529730  1.0  -0.1306
  C  C152  1  0.952870  0.609570  0.528730  1.0  -0.0801
  C  C153  1  0.903820  0.664030  0.566930  1.0  0.6924
  C  C154  1  0.979300  0.516130  0.430930  1.0  0.0171
  C  C155  1  0.957680  0.530430  0.358030  1.0  -0.1058
  C  C156  1  0.938170  0.495130  0.291930  1.0  -0.1043
  C  C157  1  0.620030  0.994160  0.863070  1.0  -0.1303
  C  C158  1  0.619530  0.942910  0.862070  1.0  -0.081
  C  C159  1  0.570480  0.997370  0.900270  1.0  0.6925
  C  C160  1  0.645960  0.849470  0.764270  1.0  0.0225
  C  C161  1  0.624340  0.863770  0.691370  1.0  -0.1062
  C  C162  1  0.604830  0.828470  0.625270  1.0  -0.1043
  C  C163  1  0.672510  0.959210  0.196400  1.0  -0.1264
  C  C164  1  0.723760  0.009960  0.195400  1.0  -0.0785
  C  C165  1  0.669300  0.906450  0.233600  1.0  0.6959
  C  C166  1  0.817200  0.129830  0.097600  1.0  0.0229
  C  C167  1  0.802900  0.093910  0.024700  1.0  -0.1062
  C  C168  1  0.838200  0.109700  0.958600  1.0  -0.105
  C  C169  1  0.339180  0.292540  0.529730  1.0  -0.1263
  C  C170  1  0.390430  0.343290  0.528730  1.0  -0.0785
  C  C171  1  0.335970  0.239780  0.566930  1.0  0.6959
  C  C172  1  0.483870  0.463160  0.430930  1.0  0.0229
  C  C173  1  0.469570  0.427240  0.358030  1.0  -0.1062
  C  C174  1  0.504870  0.443030  0.291930  1.0  -0.1051
  C  C175  1  0.005840  0.625880  0.863070  1.0  -0.1263
  C  C176  1  0.057090  0.676630  0.862070  1.0  -0.0782
  C  C177  1  0.002630  0.573120  0.900270  1.0  0.696
  C  C178  1  0.150530  0.796500  0.764270  1.0  0.0227
  C  C179  1  0.136230  0.760580  0.691370  1.0  -0.1066
  C  C180  1  0.171530  0.776370  0.625270  1.0  -0.105
  C  C181  1  0.040790  0.713300  0.196400  1.0  -0.1295
  C  C182  1  0.990040  0.713800  0.195400  1.0  -0.0836
  C  C183  1  0.093550  0.762850  0.233600  1.0  0.6951
  C  C184  1  0.870170  0.687370  0.097600  1.0  0.0192
  C  C185  1  0.906090  0.708990  0.024700  1.0  -0.1054
  C  C186  1  0.890300  0.728500  0.958600  1.0  -0.1064
  C  C187  1  0.707460  0.046630  0.529730  1.0  -0.1295
  C  C188  1  0.656710  0.047130  0.528730  1.0  -0.0837
  C  C189  1  0.760220  0.096180  0.566930  1.0  0.6951
  C  C190  1  0.536840  0.020700  0.430930  1.0  0.0225
  C  C191  1  0.572760  0.042320  0.358030  1.0  -0.1059
  C  C192  1  0.556970  0.061830  0.291930  1.0  -0.1064
  C  C193  1  0.374120  0.379970  0.863070  1.0  -0.1295
  C  C194  1  0.323370  0.380470  0.862070  1.0  -0.0836
  C  C195  1  0.426880  0.429520  0.900270  1.0  0.6951
  C  C196  1  0.203500  0.354040  0.764270  1.0  0.0194
  C  C197  1  0.239420  0.375660  0.691370  1.0  -0.1058
  C  C198  1  0.223630  0.395170  0.625270  1.0  -0.1064
  C  C199  1  0.327490  0.286700  0.803600  1.0  -0.1294
  C  C200  1  0.276240  0.286200  0.804600  1.0  -0.0817
  C  C201  1  0.330700  0.237150  0.766400  1.0  0.6952
  C  C202  1  0.182800  0.312630  0.902400  1.0  0.0184
  C  C203  1  0.197100  0.291010  0.975300  1.0  -0.1058
  C  C204  1  0.161800  0.271500  0.041400  1.0  -0.1061
  C  C205  1  0.994160  0.620030  0.136930  1.0  -0.1292
  C  C206  1  0.942910  0.619530  0.137930  1.0  -0.0817
  C  C207  1  0.997370  0.570480  0.099730  1.0  0.6952
  C  C208  1  0.849470  0.645960  0.235730  1.0  0.0225
  C  C209  1  0.863770  0.624340  0.308630  1.0  -0.1063
  C  C210  1  0.828470  0.604830  0.374730  1.0  -0.1061
  C  C211  1  0.660820  0.953370  0.470270  1.0  -0.1294
  C  C212  1  0.609570  0.952870  0.471270  1.0  -0.0808
  C  C213  1  0.664030  0.903820  0.433070  1.0  0.6952
  C  C214  1  0.516130  0.979300  0.569070  1.0  0.0166
  C  C215  1  0.530430  0.957680  0.641970  1.0  -0.1058
  C  C216  1  0.495130  0.938170  0.708070  1.0  -0.1061
  C  C217  1  0.959210  0.672510  0.803600  1.0  -0.131
  C  C218  1  0.009960  0.723760  0.804600  1.0  -0.0814
  C  C219  1  0.906450  0.669300  0.766400  1.0  0.6927
  C  C220  1  0.129830  0.817200  0.902400  1.0  0.0221
  C  C221  1  0.093910  0.802900  0.975300  1.0  -0.1049
  C  C222  1  0.109700  0.838200  0.041400  1.0  -0.1044
  C  C223  1  0.625880  0.005840  0.136930  1.0  -0.1309
  C  C224  1  0.676630  0.057090  0.137930  1.0  -0.0811
  C  C225  1  0.573120  0.002630  0.099730  1.0  0.6929
  C  C226  1  0.796500  0.150530  0.235730  1.0  0.022
  C  C227  1  0.760580  0.136230  0.308630  1.0  -0.1054
  C  C228  1  0.776370  0.171530  0.374730  1.0  -0.1044
  C  C229  1  0.292540  0.339180  0.470270  1.0  -0.1309
  C  C230  1  0.343290  0.390430  0.471270  1.0  -0.0815
  C  C231  1  0.239780  0.335970  0.433070  1.0  0.6927
  C  C232  1  0.463160  0.483870  0.569070  1.0  0.0222
  C  C233  1  0.427240  0.469570  0.641970  1.0  -0.1049
  C  C234  1  0.443030  0.504870  0.708070  1.0  -0.1045
  C  C235  1  0.713300  0.040790  0.803600  1.0  -0.126
  C  C236  1  0.713800  0.990040  0.804600  1.0  -0.0781
  C  C237  1  0.762850  0.093550  0.766400  1.0  0.6951
  C  C238  1  0.687370  0.870170  0.902400  1.0  0.0193
  C  C239  1  0.708990  0.906090  0.975300  1.0  -0.1068
  C  C240  1  0.728500  0.890300  0.041400  1.0  -0.1047
  C  C241  1  0.379970  0.374120  0.136930  1.0  -0.1259
  C  C242  1  0.380470  0.323370  0.137930  1.0  -0.0781
  C  C243  1  0.429520  0.426880  0.099730  1.0  0.6951
  C  C244  1  0.354040  0.203500  0.235730  1.0  0.0197
  C  C245  1  0.375660  0.239420  0.308630  1.0  -0.1072
  C  C246  1  0.395170  0.223630  0.374730  1.0  -0.1047
  C  C247  1  0.046630  0.707460  0.470270  1.0  -0.126
  C  C248  1  0.047130  0.656710  0.471270  1.0  -0.0781
  C  C249  1  0.096180  0.760220  0.433070  1.0  0.6951
  C  C250  1  0.020700  0.536840  0.569070  1.0  0.0226
  C  C251  1  0.042320  0.572760  0.641970  1.0  -0.1074
  C  C252  1  0.061830  0.556970  0.708070  1.0  -0.1047
  C  C253  1  0.713300  0.672510  0.803600  1.0  -0.1289
  C  C254  1  0.713800  0.723760  0.804600  1.0  -0.0807
  C  C255  1  0.762850  0.669300  0.766400  1.0  0.6929
  C  C256  1  0.687370  0.817200  0.902400  1.0  0.0184
  C  C257  1  0.708990  0.802900  0.975300  1.0  -0.1057
  C  C258  1  0.728500  0.838200  0.041400  1.0  -0.1054
  C  C259  1  0.379970  0.005840  0.136930  1.0  -0.1287
  C  C260  1  0.380470  0.057090  0.137930  1.0  -0.0807
  C  C261  1  0.429520  0.002630  0.099730  1.0  0.693
  C  C262  1  0.354040  0.150530  0.235730  1.0  0.0223
  C  C263  1  0.375660  0.136230  0.308630  1.0  -0.1062
  C  C264  1  0.395170  0.171530  0.374730  1.0  -0.1054
  C  C265  1  0.046630  0.339180  0.470270  1.0  -0.129
  C  C266  1  0.047130  0.390430  0.471270  1.0  -0.0795
  C  C267  1  0.096180  0.335970  0.433070  1.0  0.6929
  C  C268  1  0.020700  0.483870  0.569070  1.0  0.0169
  C  C269  1  0.042320  0.469570  0.641970  1.0  -0.1057
  C  C270  1  0.061830  0.504870  0.708070  1.0  -0.1054
  C  C271  1  0.327490  0.040790  0.803600  1.0  -0.1265
  C  C272  1  0.276240  0.990040  0.804600  1.0  -0.0787
  C  C273  1  0.330700  0.093550  0.766400  1.0  0.696
  C  C274  1  0.182800  0.870170  0.902400  1.0  0.0239
  C  C275  1  0.197100  0.906090  0.975300  1.0  -0.1092
  C  C276  1  0.161800  0.890300  0.041400  1.0  -0.1033
  C  C277  1  0.994160  0.374120  0.136930  1.0  -0.1264
  C  C278  1  0.942910  0.323370  0.137930  1.0  -0.0782
  C  C279  1  0.997370  0.426880  0.099730  1.0  0.6961
  C  C280  1  0.849470  0.203500  0.235730  1.0  0.0237
  C  C281  1  0.863770  0.239420  0.308630  1.0  -0.1097
  C  C282  1  0.828470  0.223630  0.374730  1.0  -0.1033
  C  C283  1  0.660820  0.707460  0.470270  1.0  -0.1264
  C  C284  1  0.609570  0.656710  0.471270  1.0  -0.0787
  C  C285  1  0.664030  0.760220  0.433070  1.0  0.696
  C  C286  1  0.516130  0.536840  0.569070  1.0  0.0239
  C  C287  1  0.530430  0.572760  0.641970  1.0  -0.1092
  C  C288  1  0.495130  0.556970  0.708070  1.0  -0.1034
  C  C289  1  0.959210  0.286700  0.803600  1.0  -0.1308
  C  C290  1  0.009960  0.286200  0.804600  1.0  -0.0812
  C  C291  1  0.906450  0.237150  0.766400  1.0  0.6945
  C  C292  1  0.129830  0.312630  0.902400  1.0  0.0192
  C  C293  1  0.093910  0.291010  0.975300  1.0  -0.1059
  C  C294  1  0.109700  0.271500  0.041400  1.0  -0.105
  C  C295  1  0.625880  0.620030  0.136930  1.0  -0.1308
  C  C296  1  0.676630  0.619530  0.137930  1.0  -0.0812
  C  C297  1  0.573120  0.570480  0.099730  1.0  0.6945
  C  C298  1  0.796500  0.645960  0.235730  1.0  0.0196
  C  C299  1  0.760580  0.624340  0.308630  1.0  -0.1064
  C  C300  1  0.776370  0.604830  0.374730  1.0  -0.105
  C  C301  1  0.292540  0.953370  0.470270  1.0  -0.1308
  C  C302  1  0.343290  0.952870  0.471270  1.0  -0.0812
  C  C303  1  0.239780  0.903820  0.433070  1.0  0.6945
  C  C304  1  0.463160  0.979300  0.569070  1.0  0.0223
  C  C305  1  0.427240  0.957680  0.641970  1.0  -0.1064
  C  C306  1  0.443030  0.938170  0.708070  1.0  -0.105
  C  C307  1  0.672510  0.713300  0.196400  1.0  -0.13
  C  C308  1  0.723760  0.713800  0.195400  1.0  -0.083
  C  C309  1  0.669300  0.762850  0.233600  1.0  0.6945
  C  C310  1  0.817200  0.687370  0.097600  1.0  0.0186
  C  C311  1  0.802900  0.708990  0.024700  1.0  -0.1057
  C  C312  1  0.838200  0.728500  0.958600  1.0  -0.1055
  C  C313  1  0.339180  0.046630  0.529730  1.0  -0.1301
  C  C314  1  0.390430  0.047130  0.528730  1.0  -0.0819
  C  C315  1  0.335970  0.096180  0.566930  1.0  0.6945
  C  C316  1  0.483870  0.020700  0.430930  1.0  0.0172
  C  C317  1  0.469570  0.042320  0.358030  1.0  -0.1057
  C  C318  1  0.504870  0.061830  0.291930  1.0  -0.1055
  C  C319  1  0.005840  0.379970  0.863070  1.0  -0.1298
  C  C320  1  0.057090  0.380470  0.862070  1.0  -0.0829
  C  C321  1  0.002630  0.429520  0.900270  1.0  0.6945
  C  C322  1  0.150530  0.354040  0.764270  1.0  0.0222
  C  C323  1  0.136230  0.375660  0.691370  1.0  -0.1061
  C  C324  1  0.171530  0.395170  0.625270  1.0  -0.1055
  C  C325  1  0.040790  0.327490  0.196400  1.0  -0.1293
  C  C326  1  0.990040  0.276240  0.195400  1.0  -0.0796
  C  C327  1  0.093550  0.330700  0.233600  1.0  0.6928
  C  C328  1  0.870170  0.182800  0.097600  1.0  0.0231
  C  C329  1  0.906090  0.197100  0.024700  1.0  -0.1069
  C  C330  1  0.890300  0.161800  0.958600  1.0  -0.1054
  C  C331  1  0.707460  0.660820  0.529730  1.0  -0.1292
  C  C332  1  0.656710  0.609570  0.528730  1.0  -0.0797
  C  C333  1  0.760220  0.664030  0.566930  1.0  0.6928
  C  C334  1  0.536840  0.516130  0.430930  1.0  0.0231
  C  C335  1  0.572760  0.530430  0.358030  1.0  -0.1069
  C  C336  1  0.556970  0.495130  0.291930  1.0  -0.1055
  C  C337  1  0.374120  0.994160  0.863070  1.0  -0.1292
  C  C338  1  0.323370  0.942910  0.862070  1.0  -0.0793
  C  C339  1  0.426880  0.997370  0.900270  1.0  0.6929
  C  C340  1  0.203500  0.849470  0.764270  1.0  0.0228
  C  C341  1  0.239420  0.863770  0.691370  1.0  -0.1074
  C  C342  1  0.223630  0.828470  0.625270  1.0  -0.1054
  C  C343  1  0.286700  0.959210  0.196400  1.0  -0.1272
  C  C344  1  0.286200  0.009960  0.195400  1.0  -0.079
  C  C345  1  0.237150  0.906450  0.233600  1.0  0.6968
  C  C346  1  0.312630  0.129830  0.097600  1.0  0.0203
  C  C347  1  0.291010  0.093910  0.024700  1.0  -0.1077
  C  C348  1  0.271500  0.109700  0.958600  1.0  -0.1037
  C  C349  1  0.953370  0.292540  0.529730  1.0  -0.1272
  C  C350  1  0.952870  0.343290  0.528730  1.0  -0.079
  C  C351  1  0.903820  0.239780  0.566930  1.0  0.6967
  C  C352  1  0.979300  0.463160  0.430930  1.0  0.0239
  C  C353  1  0.957680  0.427240  0.358030  1.0  -0.1081
  C  C354  1  0.938170  0.443030  0.291930  1.0  -0.1037
  C  C355  1  0.620030  0.625880  0.863070  1.0  -0.1272
  C  C356  1  0.619530  0.676630  0.862070  1.0  -0.0792
  C  C357  1  0.570480  0.573120  0.900270  1.0  0.6968
  C  C358  1  0.645960  0.796500  0.764270  1.0  0.0207
  C  C359  1  0.624340  0.760580  0.691370  1.0  -0.1081
  C  C360  1  0.604830  0.776370  0.625270  1.0  -0.1037
  C  C361  1  0.333333  0.376620  0.166670  1.0  0.0027
  C  C362  1  0.333333  0.273310  0.166670  1.0  0.0411
  C  C363  1  0.333333  0.218470  0.166670  1.0  -0.0898
  C  C364  1  0.000000  0.709950  0.500000  1.0  0.0028
  C  C365  1  0.000000  0.606640  0.500000  1.0  0.0412
  C  C366  1  0.000000  0.551800  0.500000  1.0  -0.0785
  C  C367  1  0.623380  0.956720  0.166670  1.0  0.0023
  C  C368  1  0.726690  0.060030  0.166670  1.0  0.0407
  C  C369  1  0.781530  0.114870  0.166670  1.0  -0.0894
  C  C370  1  0.290050  0.290050  0.500000  1.0  0.0024
  C  C371  1  0.393360  0.393360  0.500000  1.0  0.0408
  C  C372  1  0.448200  0.448200  0.500000  1.0  -0.0897
  C  C373  1  0.043280  0.666667  0.166670  1.0  0.0074
  C  C374  1  0.939970  0.666667  0.166670  1.0  0.0402
  C  C375  1  0.885130  0.666667  0.166670  1.0  -0.0789
  C  C376  1  0.709950  0.000000  0.500000  1.0  0.0076
  C  C377  1  0.606640  0.000000  0.500000  1.0  0.0401
  C  C378  1  0.551800  0.000000  0.500000  1.0  -0.0789
  C  C379  1  0.376620  0.333333  0.833330  1.0  0.0075
  C  C380  1  0.273310  0.333333  0.833330  1.0  0.04
  C  C381  1  0.218470  0.333333  0.833330  1.0  -0.0897
  C  C382  1  0.956720  0.623380  0.833330  1.0  0.0023
  C  C383  1  0.060030  0.726690  0.833330  1.0  0.0407
  C  C384  1  0.114870  0.781530  0.833330  1.0  -0.0894
  C  C385  1  0.666667  0.043280  0.833330  1.0  0.0026
  C  C386  1  0.666667  0.939970  0.833330  1.0  0.0412
  C  C387  1  0.666667  0.885130  0.833330  1.0  -0.0786
  C  C388  1  0.666667  0.623380  0.833330  1.0  0.002
  C  C389  1  0.666667  0.726690  0.833330  1.0  0.04
  C  C390  1  0.666667  0.781530  0.833330  1.0  -0.0901
  C  C391  1  0.333333  0.956720  0.166670  1.0  0.002
  C  C392  1  0.333333  0.060030  0.166670  1.0  0.0401
  C  C393  1  0.333333  0.114870  0.166670  1.0  -0.079
  C  C394  1  0.376620  0.043280  0.833330  1.0  0.0036
  C  C395  1  0.273310  0.939970  0.833330  1.0  0.0405
  C  C396  1  0.218470  0.885130  0.833330  1.0  -0.0895
  C  C397  1  0.709950  0.709950  0.500000  1.0  0.0035
  C  C398  1  0.606640  0.606640  0.500000  1.0  0.0407
  C  C399  1  0.551800  0.551800  0.500000  1.0  -0.0898
  C  C400  1  0.956720  0.333333  0.833330  1.0  0.0039
  C  C401  1  0.060030  0.333333  0.833330  1.0  0.0413
  C  C402  1  0.114870  0.333333  0.833330  1.0  -0.0781
  C  C403  1  0.623380  0.666667  0.166670  1.0  0.004
  C  C404  1  0.726690  0.666667  0.166670  1.0  0.0412
  C  C405  1  0.781530  0.666667  0.166670  1.0  -0.0898
  C  C406  1  0.290050  0.000000  0.500000  1.0  0.0041
  C  C407  1  0.393360  0.000000  0.500000  1.0  0.0412
  C  C408  1  0.448200  0.000000  0.500000  1.0  -0.0782
  C  C409  1  0.043280  0.376620  0.166670  1.0  0.0035
  C  C410  1  0.939970  0.273310  0.166670  1.0  0.0405
  C  C411  1  0.885130  0.218470  0.166670  1.0  -0.0895
  C  C412  1  0.000000  0.290050  0.500000  1.0  0.0021
  C  C413  1  0.000000  0.393360  0.500000  1.0  0.0401
  C  C414  1  0.000000  0.448200  0.500000  1.0  -0.0789
  O  O415  1  0.195120  0.283900  0.255730  1.0  -0.6061
  O  O416  1  0.242710  0.379190  0.242200  1.0  -0.5988
  O  O417  1  0.861790  0.617230  0.589060  1.0  -0.6061
  O  O418  1  0.909380  0.712520  0.575530  1.0  -0.5988
  O  O419  1  0.528450  0.950570  0.922400  1.0  -0.6061
  O  O420  1  0.576040  0.045860  0.908870  1.0  -0.5979
  O  O421  1  0.716100  0.911220  0.255730  1.0  -0.6077
  O  O422  1  0.620810  0.863520  0.242200  1.0  -0.5975
  O  O423  1  0.382770  0.244550  0.589060  1.0  -0.6077
  O  O424  1  0.287480  0.196850  0.575530  1.0  -0.5989
  O  O425  1  0.049430  0.577890  0.922400  1.0  -0.6077
  O  O426  1  0.954140  0.530190  0.908870  1.0  -0.5994
  O  O427  1  0.088780  0.804880  0.255730  1.0  -0.6084
  O  O428  1  0.136480  0.757290  0.242200  1.0  -0.5992
  O  O429  1  0.755450  0.138210  0.589060  1.0  -0.6084
  O  O430  1  0.803150  0.090620  0.575530  1.0  -0.5991
  O  O431  1  0.422110  0.471550  0.922400  1.0  -0.6084
  O  O432  1  0.469810  0.423960  0.908870  1.0  -0.5991
  O  O433  1  0.283900  0.195120  0.744270  1.0  -0.6072
  O  O434  1  0.379190  0.242710  0.757800  1.0  -0.5989
  O  O435  1  0.950570  0.528450  0.077600  1.0  -0.6072
  O  O436  1  0.045860  0.576040  0.091130  1.0  -0.5966
  O  O437  1  0.617230  0.861790  0.410940  1.0  -0.6072
  O  O438  1  0.712520  0.909380  0.424470  1.0  -0.5989
  O  O439  1  0.911220  0.716100  0.744270  1.0  -0.6067
  O  O440  1  0.863520  0.620810  0.757800  1.0  -0.5994
  O  O441  1  0.577890  0.049430  0.077600  1.0  -0.6067
  O  O442  1  0.530190  0.954140  0.091130  1.0  -0.6006
  O  O443  1  0.244550  0.382770  0.410940  1.0  -0.6067
  O  O444  1  0.196850  0.287480  0.424470  1.0  -0.6007
  O  O445  1  0.804880  0.088780  0.744270  1.0  -0.6075
  O  O446  1  0.757290  0.136480  0.757800  1.0  -0.601
  O  O447  1  0.471550  0.422110  0.077600  1.0  -0.6075
  O  O448  1  0.423960  0.469810  0.091130  1.0  -0.6007
  O  O449  1  0.138210  0.755450  0.410940  1.0  -0.6075
  O  O450  1  0.090620  0.803150  0.424470  1.0  -0.6008
  O  O451  1  0.804880  0.716100  0.744270  1.0  -0.6057
  O  O452  1  0.757290  0.620810  0.757800  1.0  -0.6011
  O  O453  1  0.471550  0.049430  0.077600  1.0  -0.6057
  O  O454  1  0.423960  0.954140  0.091130  1.0  -0.5992
  O  O455  1  0.138210  0.382770  0.410940  1.0  -0.6057
  O  O456  1  0.090620  0.287480  0.424470  1.0  -0.6011
  O  O457  1  0.283900  0.088780  0.744270  1.0  -0.6077
  O  O458  1  0.379190  0.136480  0.757800  1.0  -0.5994
  O  O459  1  0.950570  0.422110  0.077600  1.0  -0.6077
  O  O460  1  0.045860  0.469810  0.091130  1.0  -0.601
  O  O461  1  0.617230  0.755450  0.410940  1.0  -0.6077
  O  O462  1  0.712520  0.803150  0.424470  1.0  -0.6007
  O  O463  1  0.911220  0.195120  0.744270  1.0  -0.6077
  O  O464  1  0.863520  0.242710  0.757800  1.0  -0.5991
  O  O465  1  0.577890  0.528450  0.077600  1.0  -0.6077
  O  O466  1  0.530190  0.576040  0.091130  1.0  -0.599
  O  O467  1  0.244550  0.861790  0.410940  1.0  -0.6077
  O  O468  1  0.196850  0.909380  0.424470  1.0  -0.599
  O  O469  1  0.716100  0.804880  0.255730  1.0  -0.6085
  O  O470  1  0.620810  0.757290  0.242200  1.0  -0.5991
  O  O471  1  0.382770  0.138210  0.589060  1.0  -0.6085
  O  O472  1  0.287480  0.090620  0.575530  1.0  -0.599
  O  O473  1  0.049430  0.471550  0.922400  1.0  -0.6085
  O  O474  1  0.954140  0.423960  0.908870  1.0  -0.597
  O  O475  1  0.088780  0.283900  0.255730  1.0  -0.605
  O  O476  1  0.136480  0.379190  0.242200  1.0  -0.5978
  O  O477  1  0.755450  0.617230  0.589060  1.0  -0.605
  O  O478  1  0.803150  0.712520  0.575530  1.0  -0.5985
  O  O479  1  0.422110  0.950570  0.922400  1.0  -0.605
  O  O480  1  0.469810  0.045860  0.908870  1.0  -0.5988
  O  O481  1  0.195120  0.911220  0.255730  1.0  -0.6078
  O  O482  1  0.242710  0.863520  0.242200  1.0  -0.6008
  O  O483  1  0.861790  0.244550  0.589060  1.0  -0.6078
  O  O484  1  0.909380  0.196850  0.575530  1.0  -0.6006
  O  O485  1  0.528450  0.577890  0.922400  1.0  -0.6078
  O  O486  1  0.576040  0.530190  0.908870  1.0  -0.6007
