# generated using pymatgen
data_ZnH12(CN2)12
_symmetry_space_group_name_H-M   'P 1'
_cell_length_a   8.13000000
_cell_length_b   20.17400000
_cell_length_c   9.01400000
_cell_angle_alpha   90.00000000
_cell_angle_beta   91.42300000
_cell_angle_gamma   90.00000000
_symmetry_Int_Tables_number   1
_chemical_formula_structural   ZnH12(CN2)12
_chemical_formula_sum   'Zn2 H24 C24 N48'
_cell_volume   1477.97183981
_cell_formula_units_Z   2
loop_
 _symmetry_equiv_pos_site_id
 _symmetry_equiv_pos_as_xyz
  1  'x, y, z'
loop_
 _atom_site_type_symbol
 _atom_site_label
 _atom_site_symmetry_multiplicity
 _atom_site_fract_x
 _atom_site_fract_y
 _atom_site_fract_z
 _atom_site_occupancy
 _atom_site_charge
  Zn  Zn1  1  0.500000  0.500000  0.500000  1.0  0.4724
  Zn  Zn2  1  0.000000  0.000000  0.000000  1.0  0.4724
  H  H3  1  0.516700  0.631200  0.715100  1.0  0.1215
  H  H4  1  0.032300  0.653000  0.650900  1.0  0.1062
  H  H5  1  0.964500  0.857000  0.829900  1.0  0.1189
  H  H6  1  0.451400  0.835800  0.866300  1.0  0.1087
  H  H7  1  0.899900  0.498600  0.645200  1.0  0.131
  H  H8  1  0.679100  0.495800  0.037500  1.0  0.1069
  H  H9  1  0.983300  0.131200  0.784900  1.0  0.122
  H  H10  1  0.467700  0.153000  0.849100  1.0  0.1059
  H  H11  1  0.535500  0.357000  0.670100  1.0  0.1189
  H  H12  1  0.048600  0.335800  0.633700  1.0  0.1101
  H  H13  1  0.600100  0.998600  0.854800  1.0  0.1304
  H  H14  1  0.820900  0.995800  0.462500  1.0  0.1074
  H  H15  1  0.483300  0.368800  0.284900  1.0  0.1222
  H  H16  1  0.967700  0.347000  0.349100  1.0  0.1056
  H  H17  1  0.035500  0.143000  0.170100  1.0  0.1188
  H  H18  1  0.548600  0.164200  0.133700  1.0  0.1096
  H  H19  1  0.100100  0.501400  0.354800  1.0  0.1303
  H  H20  1  0.320900  0.504200  0.962500  1.0  0.1091
  H  H21  1  0.016700  0.868800  0.215100  1.0  0.1214
  H  H22  1  0.532300  0.847000  0.150900  1.0  0.1064
  H  H23  1  0.464500  0.643000  0.329900  1.0  0.1188
  H  H24  1  0.951400  0.664200  0.366300  1.0  0.1088
  H  H25  1  0.399900  0.001400  0.145200  1.0  0.131
  H  H26  1  0.179100  0.004200  0.537500  1.0  0.1083
  C  C27  1  0.405300  0.623780  0.685200  1.0  0.1433
  C  C28  1  0.140400  0.635180  0.650000  1.0  0.1256
  C  C29  1  0.077700  0.865010  0.851900  1.0  0.125
  C  C30  1  0.343800  0.853790  0.871600  1.0  0.1537
  C  C31  1  0.818400  0.497770  0.719000  1.0  0.1457
  C  C32  1  0.696700  0.496120  0.933600  1.0  0.1058
  C  C33  1  0.094700  0.123780  0.814800  1.0  0.1439
  C  C34  1  0.359600  0.135180  0.850000  1.0  0.125
  C  C35  1  0.422300  0.365010  0.648100  1.0  0.1251
  C  C36  1  0.156200  0.353790  0.628400  1.0  0.1539
  C  C37  1  0.681600  0.997770  0.781000  1.0  0.1459
  C  C38  1  0.803300  0.996120  0.566400  1.0  0.1063
  C  C39  1  0.594700  0.376220  0.314800  1.0  0.1445
  C  C40  1  0.859600  0.364820  0.350000  1.0  0.1242
  C  C41  1  0.922300  0.134990  0.148100  1.0  0.1242
  C  C42  1  0.656200  0.146210  0.128400  1.0  0.1549
  C  C43  1  0.181600  0.502230  0.281000  1.0  0.1457
  C  C44  1  0.303300  0.503880  0.066400  1.0  0.1064
  C  C45  1  0.905300  0.876220  0.185200  1.0  0.144
  C  C46  1  0.640400  0.864820  0.150000  1.0  0.1248
  C  C47  1  0.577700  0.634990  0.351900  1.0  0.1243
  C  C48  1  0.843800  0.646210  0.371600  1.0  0.1552
  C  C49  1  0.318400  0.002230  0.219000  1.0  0.1456
  C  C50  1  0.196700  0.003880  0.433600  1.0  0.1059
  N  N51  1  0.351500  0.572900  0.610390  1.0  -0.1839
  N  N52  1  0.181200  0.579470  0.588300  1.0  -0.2637
  N  N53  1  0.277700  0.664510  0.714000  1.0  0.1685
  N  N54  1  0.303500  0.726630  0.776200  1.0  -0.2876
  N  N55  1  0.173600  0.758970  0.770200  1.0  -0.2844
  N  N56  1  0.201600  0.821690  0.828900  1.0  0.1638
  N  N57  1  0.138100  0.919250  0.908710  1.0  -0.182
  N  N58  1  0.308600  0.912890  0.920600  1.0  -0.2486
  N  N59  1  0.659600  0.496660  0.694160  1.0  -0.1679
  N  N60  1  0.581800  0.495260  0.830650  1.0  -0.262
  N  N61  1  0.847500  0.497570  0.868270  1.0  0.1529
  N  N62  1  0.003900  0.499550  0.931180  1.0  -0.3341
  N  N63  1  0.148500  0.072900  0.889610  1.0  -0.184
  N  N64  1  0.318800  0.079470  0.911700  1.0  -0.263
  N  N65  1  0.222300  0.164510  0.786000  1.0  0.1682
  N  N66  1  0.196500  0.226630  0.723800  1.0  -0.2844
  N  N67  1  0.326400  0.258970  0.729800  1.0  -0.2862
  N  N68  1  0.298400  0.321690  0.671100  1.0  0.1643
  N  N69  1  0.361900  0.419250  0.591290  1.0  -0.1827
  N  N70  1  0.191400  0.412890  0.579400  1.0  -0.2493
  N  N71  1  0.840400  0.996660  0.805840  1.0  -0.1679
  N  N72  1  0.918200  0.995260  0.669350  1.0  -0.2632
  N  N73  1  0.652500  0.997570  0.631730  1.0  0.1527
  N  N74  1  0.496100  0.999550  0.568820  1.0  -0.337
  N  N75  1  0.648500  0.427100  0.389610  1.0  -0.1851
  N  N76  1  0.818800  0.420530  0.411700  1.0  -0.2631
  N  N77  1  0.722300  0.335490  0.286000  1.0  0.1677
  N  N78  1  0.696500  0.273370  0.223800  1.0  -0.2852
  N  N79  1  0.826400  0.241030  0.229800  1.0  -0.2866
  N  N80  1  0.798400  0.178310  0.171100  1.0  0.1647
  N  N81  1  0.861900  0.080750  0.091290  1.0  -0.182
  N  N82  1  0.691400  0.087110  0.079400  1.0  -0.2486
  N  N83  1  0.340400  0.503340  0.305840  1.0  -0.1678
  N  N84  1  0.418200  0.504740  0.169350  1.0  -0.2631
  N  N85  1  0.152500  0.502430  0.131730  1.0  0.1525
  N  N86  1  0.996100  0.500450  0.068820  1.0  -0.3372
  N  N87  1  0.851500  0.927100  0.110390  1.0  -0.1848
  N  N88  1  0.681200  0.920530  0.088300  1.0  -0.2647
  N  N89  1  0.777700  0.835490  0.214000  1.0  0.1691
  N  N90  1  0.803500  0.773370  0.276200  1.0  -0.2869
  N  N91  1  0.673600  0.741030  0.270200  1.0  -0.2844
  N  N92  1  0.701600  0.678310  0.328900  1.0  0.1653
  N  N93  1  0.638100  0.580750  0.408710  1.0  -0.1807
  N  N94  1  0.808600  0.587110  0.420600  1.0  -0.2481
  N  N95  1  0.159600  0.003340  0.194160  1.0  -0.1678
  N  N96  1  0.081800  0.004740  0.330650  1.0  -0.2619
  N  N97  1  0.347500  0.002430  0.368270  1.0  0.1527
  N  N98  1  0.503900  0.000450  0.431180  1.0  -0.3345
