# generated using pymatgen
data_K4Na2Co11P4H30W36C28(N21O55)2
_symmetry_space_group_name_H-M   'P 1'
_cell_length_a   19.14400000
_cell_length_b   23.38800000
_cell_length_c   22.86000000
_cell_angle_alpha   90.00000000
_cell_angle_beta   102.83800000
_cell_angle_gamma   90.00000000
_symmetry_Int_Tables_number   1
_chemical_formula_structural   K4Na2Co11P4H30W36C28(N21O55)2
_chemical_formula_sum   'K8 Na4 Co22 P8 H60 W72 C56 N84 O220'
_cell_volume   9979.47268879
_cell_formula_units_Z   2
loop_
 _symmetry_equiv_pos_site_id
 _symmetry_equiv_pos_as_xyz
  1  'x, y, z'
loop_
 _atom_site_type_symbol
 _atom_site_label
 _atom_site_symmetry_multiplicity
 _atom_site_fract_x
 _atom_site_fract_y
 _atom_site_fract_z
 _atom_site_occupancy
 _atom_site_charge
  K  K1  1  0.502200  0.583100  0.663700  1.0  0.8874
  K  K2  1  0.919300  0.921400  0.186700  1.0  0.9086
  K  K3  1  0.997800  0.083100  0.836300  1.0  0.8556
  K  K4  1  0.580700  0.421400  0.313300  1.0  0.8544
  K  K5  1  0.497800  0.416900  0.336300  1.0  0.8517
  K  K6  1  0.080700  0.078600  0.813300  1.0  0.8603
  K  K7  1  0.002200  0.916900  0.163700  1.0  0.8837
  K  K8  1  0.419300  0.578600  0.686700  1.0  0.9125
  Na  Na9  1  0.543400  0.631400  0.824500  1.0  0.8292
  Na  Na10  1  0.956600  0.131400  0.675500  1.0  0.8667
  Na  Na11  1  0.456600  0.368600  0.175500  1.0  0.8659
  Na  Na12  1  0.043400  0.868600  0.324500  1.0  0.8282
  Co  Co13  1  0.915750  0.657620  0.191530  1.0  0.6277
  Co  Co14  1  0.412220  0.921750  0.831690  1.0  0.9139
  Co  Co15  1  0.737100  0.924900  0.379200  1.0  0.723
  Co  Co16  1  0.448210  0.856850  0.432370  1.0  0.9787
  Co  Co17  1  0.303500  0.024300  0.238000  1.0  0.9385
  Co  Co18  1  0.584250  0.157620  0.308470  1.0  0.6297
  Co  Co19  1  0.087780  0.421750  0.668310  1.0  0.9078
  Co  Co20  1  0.762900  0.424900  0.120800  1.0  0.7228
  Co  Co21  1  0.051790  0.356850  0.067630  1.0  0.975
  Co  Co22  1  0.196500  0.524300  0.262000  1.0  0.9438
  Co  Co23  1  0.084250  0.342380  0.808470  1.0  0.6299
  Co  Co24  1  0.587780  0.078250  0.168310  1.0  0.9072
  Co  Co25  1  0.262900  0.075100  0.620800  1.0  0.7233
  Co  Co26  1  0.551790  0.143150  0.567630  1.0  0.9775
  Co  Co27  1  0.696500  0.975700  0.762000  1.0  0.944
  Co  Co28  1  0.415750  0.842380  0.691530  1.0  0.6277
  Co  Co29  1  0.912220  0.578250  0.331690  1.0  0.9145
  Co  Co30  1  0.237100  0.575100  0.879200  1.0  0.7232
  Co  Co31  1  0.948210  0.643150  0.932370  1.0  0.9812
  Co  Co32  1  0.803500  0.475700  0.738000  1.0  0.9385
  Co  Co33  1  0.500000  0.000000  0.500000  1.0  0.8155
  Co  Co34  1  0.000000  0.500000  0.000000  1.0  0.8155
  P  P35  1  0.574400  0.778800  0.105000  1.0  1.6701
  P  P36  1  0.383300  0.745200  0.137200  1.0  1.5605
  P  P37  1  0.925600  0.278800  0.395000  1.0  1.6742
  P  P38  1  0.116700  0.245200  0.362800  1.0  1.5611
  P  P39  1  0.425600  0.221200  0.895000  1.0  1.6741
  P  P40  1  0.616700  0.254800  0.862800  1.0  1.561
  P  P41  1  0.074400  0.721200  0.605000  1.0  1.67
  P  P42  1  0.883300  0.754800  0.637200  1.0  1.5605
  H  H43  1  0.577800  0.957800  0.846500  1.0  0.0428
  H  H44  1  0.307800  0.016600  0.759800  1.0  0.0464
  H  H45  1  0.347400  0.810700  0.892900  1.0  0.0597
  H  H46  1  0.543100  0.767700  0.772200  1.0  0.0963
  H  H47  1  0.586100  0.872700  0.705300  1.0  0.0751
  H  H48  1  0.301700  0.933100  0.610800  1.0  0.0865
  H  H49  1  0.352600  0.725600  0.746700  1.0  0.0654
  H  H50  1  0.424700  0.717600  0.619100  1.0  0.0595
  H  H51  1  0.612100  0.838600  0.407400  1.0  0.0688
  H  H52  1  0.655300  0.992200  0.475300  1.0  0.0746
  H  H53  1  0.522700  0.783900  0.477400  1.0  0.4534
  H  H54  1  0.424100  0.808400  0.560700  1.0  0.0803
  H  H55  1  0.347300  0.913100  0.316200  1.0  0.0454
  H  H56  1  0.382300  0.062500  0.386600  1.0  0.0798
  H  H57  1  0.469600  0.956900  0.628400  1.0  0.0558
  H  H58  1  0.922200  0.457800  0.653500  1.0  0.0428
  H  H59  1  0.192200  0.516600  0.740200  1.0  0.0449
  H  H60  1  0.152600  0.310700  0.607100  1.0  0.0606
  H  H61  1  0.956900  0.267700  0.727800  1.0  0.0964
  H  H62  1  0.913900  0.372700  0.794700  1.0  0.077
  H  H63  1  0.198300  0.433100  0.889200  1.0  0.0839
  H  H64  1  0.147400  0.225600  0.753300  1.0  0.0651
  H  H65  1  0.075300  0.217600  0.880900  1.0  0.0608
  H  H66  1  0.887900  0.338600  0.092600  1.0  0.0688
  H  H67  1  0.844700  0.492200  0.024700  1.0  0.0755
  H  H68  1  0.977300  0.283900  0.022600  1.0  0.4514
  H  H69  1  0.075900  0.308400  0.939300  1.0  0.0804
  H  H70  1  0.152700  0.413100  0.183800  1.0  0.0455
  H  H71  1  0.117700  0.562500  0.113400  1.0  0.0795
  H  H72  1  0.030400  0.456900  0.871600  1.0  0.0561
  H  H73  1  0.422200  0.042200  0.153500  1.0  0.0431
  H  H74  1  0.692200  0.983400  0.240200  1.0  0.0451
  H  H75  1  0.652600  0.189300  0.107100  1.0  0.0606
  H  H76  1  0.456900  0.232300  0.227800  1.0  0.096
  H  H77  1  0.413900  0.127300  0.294700  1.0  0.0764
  H  H78  1  0.698300  0.066900  0.389200  1.0  0.0839
  H  H79  1  0.647400  0.274400  0.253300  1.0  0.0646
  H  H80  1  0.575300  0.282400  0.380900  1.0  0.0609
  H  H81  1  0.387900  0.161400  0.592600  1.0  0.0685
  H  H82  1  0.344700  0.007800  0.524700  1.0  0.0747
  H  H83  1  0.477300  0.216100  0.522600  1.0  0.4519
  H  H84  1  0.575900  0.191600  0.439300  1.0  0.0801
  H  H85  1  0.652700  0.086900  0.683800  1.0  0.0455
  H  H86  1  0.617700  0.937500  0.613400  1.0  0.0789
  H  H87  1  0.530400  0.043100  0.371600  1.0  0.0551
  H  H88  1  0.077800  0.542200  0.346500  1.0  0.0431
  H  H89  1  0.807800  0.483400  0.259800  1.0  0.0468
  H  H90  1  0.847400  0.689300  0.392900  1.0  0.0599
  H  H91  1  0.043100  0.732300  0.272200  1.0  0.0959
  H  H92  1  0.086100  0.627300  0.205300  1.0  0.0755
  H  H93  1  0.801700  0.566900  0.110800  1.0  0.0863
  H  H94  1  0.852600  0.774400  0.246700  1.0  0.0651
  H  H95  1  0.924700  0.782400  0.119100  1.0  0.0603
  H  H96  1  0.112100  0.661400  0.907400  1.0  0.0683
  H  H97  1  0.155300  0.507800  0.975300  1.0  0.0748
  H  H98  1  0.022700  0.716100  0.977400  1.0  0.4534
  H  H99  1  0.924100  0.691600  0.060700  1.0  0.08
  H  H100  1  0.847300  0.586900  0.816200  1.0  0.0458
  H  H101  1  0.882300  0.437500  0.886600  1.0  0.0796
  H  H102  1  0.969600  0.543100  0.128400  1.0  0.0559
  W  W103  1  0.669700  0.813760  0.994470  1.0  1.2978
  W  W104  1  0.747840  0.730070  0.112330  1.0  2.1489
  W  W105  1  0.724570  0.871340  0.133150  1.0  2.5645
  W  W106  1  0.487270  0.868610  0.988440  1.0  2.3951
  W  W107  1  0.513750  0.715450  0.962680  1.0  2.606
  W  W108  1  0.651060  0.691380  0.229930  1.0  1.2738
  W  W109  1  0.592620  0.631830  0.078580  1.0  1.3733
  W  W110  1  0.629170  0.831440  0.251520  1.0  2.4969
  W  W111  1  0.539770  0.923550  0.126420  1.0  2.492
  W  W112  1  0.307120  0.837790  0.020470  1.0  1.2973
  W  W113  1  0.332070  0.685340  0.993140  1.0  1.3007
  W  W114  1  0.470530  0.658160  0.259010  1.0  1.3057
  W  W115  1  0.412340  0.600560  0.108030  1.0  1.3865
  W  W116  1  0.447640  0.797490  0.280180  1.0  2.2881
  W  W117  1  0.359190  0.892590  0.157920  1.0  2.5376
  W  W118  1  0.197300  0.729820  0.077360  1.0  1.2534
  W  W119  1  0.276820  0.644660  0.192630  1.0  2.3874
  W  W120  1  0.252470  0.786680  0.216010  1.0  1.3949
  W  W121  1  0.830300  0.313760  0.505530  1.0  1.2921
  W  W122  1  0.752160  0.230070  0.387670  1.0  2.1476
  W  W123  1  0.775430  0.371340  0.366850  1.0  2.5657
  W  W124  1  0.012730  0.368610  0.511560  1.0  2.3968
  W  W125  1  0.986250  0.215450  0.537320  1.0  2.6071
  W  W126  1  0.848940  0.191380  0.270070  1.0  1.2743
  W  W127  1  0.907380  0.131830  0.421420  1.0  1.3709
  W  W128  1  0.870830  0.331440  0.248480  1.0  2.4971
  W  W129  1  0.960230  0.423550  0.373580  1.0  2.4927
  W  W130  1  0.192880  0.337790  0.479530  1.0  1.2988
  W  W131  1  0.167930  0.185340  0.506860  1.0  1.2993
  W  W132  1  0.029470  0.158160  0.240990  1.0  1.3092
  W  W133  1  0.087660  0.100560  0.391970  1.0  1.3869
  W  W134  1  0.052360  0.297490  0.219820  1.0  2.2874
  W  W135  1  0.140810  0.392590  0.342080  1.0  2.538
  W  W136  1  0.302700  0.229820  0.422640  1.0  1.2544
  W  W137  1  0.223180  0.144660  0.307370  1.0  2.3878
  W  W138  1  0.247530  0.286680  0.283990  1.0  1.3957
  W  W139  1  0.330300  0.186240  0.005530  1.0  1.2933
  W  W140  1  0.252160  0.269930  0.887670  1.0  2.1481
  W  W141  1  0.275430  0.128660  0.866850  1.0  2.5636
  W  W142  1  0.512730  0.131390  0.011560  1.0  2.3964
  W  W143  1  0.486250  0.284550  0.037320  1.0  2.6075
  W  W144  1  0.348940  0.308620  0.770070  1.0  1.2776
  W  W145  1  0.407380  0.368170  0.921420  1.0  1.3757
  W  W146  1  0.370830  0.168560  0.748480  1.0  2.497
  W  W147  1  0.460230  0.076450  0.873580  1.0  2.4924
  W  W148  1  0.692880  0.162210  0.979530  1.0  1.2933
  W  W149  1  0.667930  0.314660  0.006860  1.0  1.2993
  W  W150  1  0.529470  0.341840  0.740990  1.0  1.3099
  W  W151  1  0.587660  0.399440  0.891970  1.0  1.3906
  W  W152  1  0.552360  0.202510  0.719820  1.0  2.2868
  W  W153  1  0.640810  0.107410  0.842080  1.0  2.5399
  W  W154  1  0.802700  0.270180  0.922640  1.0  1.2532
  W  W155  1  0.723180  0.355340  0.807370  1.0  2.3867
  W  W156  1  0.747530  0.213320  0.783990  1.0  1.3931
  W  W157  1  0.169700  0.686240  0.494470  1.0  1.2979
  W  W158  1  0.247840  0.769930  0.612330  1.0  2.1498
  W  W159  1  0.224570  0.628660  0.633150  1.0  2.5621
  W  W160  1  0.987270  0.631390  0.488440  1.0  2.395
  W  W161  1  0.013750  0.784550  0.462680  1.0  2.6062
  W  W162  1  0.151060  0.808620  0.729930  1.0  1.2769
  W  W163  1  0.092620  0.868170  0.578580  1.0  1.3766
  W  W164  1  0.129170  0.668560  0.751520  1.0  2.496
  W  W165  1  0.039770  0.576450  0.626420  1.0  2.4921
  W  W166  1  0.807120  0.662210  0.520470  1.0  1.2933
  W  W167  1  0.832070  0.814660  0.493140  1.0  1.301
  W  W168  1  0.970530  0.841840  0.759010  1.0  1.3117
  W  W169  1  0.912340  0.899440  0.608030  1.0  1.3899
  W  W170  1  0.947640  0.702510  0.780180  1.0  2.2872
  W  W171  1  0.859190  0.607410  0.657920  1.0  2.5393
  W  W172  1  0.697300  0.770180  0.577360  1.0  1.2527
  W  W173  1  0.776820  0.855340  0.692630  1.0  2.3871
  W  W174  1  0.752470  0.713320  0.716010  1.0  1.3948
  C  C175  1  0.564900  0.935600  0.812100  1.0  0.2462
  C  C176  1  0.318000  0.990300  0.732400  1.0  0.1598
  C  C177  1  0.352300  0.801400  0.854500  1.0  0.2531
  C  C178  1  0.516000  0.744000  0.744000  1.0  0.2247
  C  C179  1  0.569200  0.890500  0.735800  1.0  0.1302
  C  C180  1  0.313100  0.944800  0.650700  1.0  0.1876
  C  C181  1  0.355800  0.755000  0.774600  1.0  0.2004
  C  C182  1  0.453000  0.717000  0.658000  1.0  0.1182
  C  C183  1  0.607900  0.874500  0.423900  1.0  0.2052
  C  C184  1  0.631000  0.958900  0.461000  1.0  0.1916
  C  C185  1  0.436600  0.846900  0.564100  1.0  0.1097
  C  C186  1  0.363800  0.942600  0.343000  1.0  0.1793
  C  C187  1  0.383600  0.023100  0.381700  1.0  0.1753
  C  C188  1  0.461000  0.927600  0.600200  1.0  0.1747
  C  C189  1  0.935100  0.435600  0.687900  1.0  0.2468
  C  C190  1  0.182000  0.490300  0.767600  1.0  0.1613
  C  C191  1  0.147700  0.301400  0.645500  1.0  0.2516
  C  C192  1  0.984000  0.244000  0.756000  1.0  0.2222
  C  C193  1  0.930800  0.390500  0.764200  1.0  0.1306
  C  C194  1  0.186900  0.444800  0.849300  1.0  0.188
  C  C195  1  0.144200  0.255000  0.725400  1.0  0.201
  C  C196  1  0.047000  0.217000  0.842000  1.0  0.1187
  C  C197  1  0.892100  0.374500  0.076100  1.0  0.2052
  C  C198  1  0.869000  0.458900  0.039000  1.0  0.1919
  C  C199  1  0.063400  0.346900  0.935900  1.0  0.1082
  C  C200  1  0.136200  0.442600  0.157000  1.0  0.1798
  C  C201  1  0.116400  0.523100  0.118300  1.0  0.1757
  C  C202  1  0.039000  0.427600  0.899800  1.0  0.1754
  C  C203  1  0.435100  0.064400  0.187900  1.0  0.2474
  C  C204  1  0.682000  0.009700  0.267600  1.0  0.1613
  C  C205  1  0.647700  0.198600  0.145500  1.0  0.2521
  C  C206  1  0.484000  0.256000  0.256000  1.0  0.2225
  C  C207  1  0.430800  0.109500  0.264200  1.0  0.13
  C  C208  1  0.686900  0.055200  0.349300  1.0  0.1882
  C  C209  1  0.644200  0.245000  0.225400  1.0  0.2015
  C  C210  1  0.547000  0.283000  0.342000  1.0  0.1186
  C  C211  1  0.392100  0.125500  0.576100  1.0  0.2048
  C  C212  1  0.369000  0.041100  0.539000  1.0  0.1923
  C  C213  1  0.563400  0.153100  0.435900  1.0  0.1095
  C  C214  1  0.636200  0.057400  0.657000  1.0  0.1801
  C  C215  1  0.616400  0.976900  0.618300  1.0  0.1762
  C  C216  1  0.539000  0.072400  0.399800  1.0  0.1756
  C  C217  1  0.064900  0.564400  0.312100  1.0  0.2467
  C  C218  1  0.818000  0.509700  0.232400  1.0  0.1599
  C  C219  1  0.852300  0.698600  0.354500  1.0  0.2539
  C  C220  1  0.016000  0.756000  0.244000  1.0  0.2252
  C  C221  1  0.069200  0.609500  0.235800  1.0  0.1296
  C  C222  1  0.813100  0.555200  0.150700  1.0  0.1871
  C  C223  1  0.855800  0.745000  0.274600  1.0  0.2006
  C  C224  1  0.953000  0.783000  0.158000  1.0  0.1186
  C  C225  1  0.107900  0.625500  0.923900  1.0  0.2051
  C  C226  1  0.131000  0.541100  0.961000  1.0  0.1919
  C  C227  1  0.936600  0.653100  0.064100  1.0  0.1105
  C  C228  1  0.863800  0.557400  0.843000  1.0  0.1789
  C  C229  1  0.883600  0.476900  0.881700  1.0  0.1761
  C  C230  1  0.961000  0.572400  0.100200  1.0  0.1748
  N  N231  1  0.504400  0.908100  0.799800  1.0  -0.3392
  N  N232  1  0.355000  0.946000  0.746700  1.0  -0.2391
  N  N233  1  0.378000  0.837500  0.817500  1.0  -0.3126
  N  N234  1  0.518000  0.682800  0.749400  1.0  -0.3753
  N  N235  1  0.503800  0.879800  0.748100  1.0  -0.298
  N  N236  1  0.349800  0.914600  0.697000  1.0  -0.1426
  N  N237  1  0.380500  0.805500  0.767800  1.0  -0.1756
  N  N238  1  0.484000  0.665200  0.691100  1.0  -0.271
  N  N239  1  0.658700  0.915400  0.430800  1.0  -0.4253
  N  N240  1  0.704400  0.005100  0.328300  1.0  -0.4034
  N  N241  1  0.607200  0.930900  0.774200  1.0  -0.4413
  N  N242  1  0.335000  0.750300  0.827800  1.0  -0.3669
  N  N243  1  0.471000  0.763500  0.691500  1.0  -0.4059
  N  N244  1  0.444100  0.876500  0.610800  1.0  -0.2481
  N  N245  1  0.550800  0.891900  0.443700  1.0  -0.2522
  N  N246  1  0.449300  0.879200  0.521000  1.0  -0.2459
  N  N247  1  0.405100  0.934200  0.397800  1.0  -0.3135
  N  N248  1  0.566300  0.946300  0.466300  1.0  -0.2202
  N  N249  1  0.349400  0.994900  0.331400  1.0  -0.4093
  N  N250  1  0.464300  0.932800  0.545100  1.0  -0.3087
  N  N251  1  0.419700  0.986500  0.423600  1.0  -0.328
  N  N252  1  0.995600  0.408100  0.700200  1.0  -0.3393
  N  N253  1  0.145000  0.446000  0.753300  1.0  -0.2401
  N  N254  1  0.122000  0.337500  0.682500  1.0  -0.313
  N  N255  1  0.982000  0.182800  0.750600  1.0  -0.3746
  N  N256  1  0.996200  0.379800  0.751900  1.0  -0.2981
  N  N257  1  0.150200  0.414600  0.803000  1.0  -0.1441
  N  N258  1  0.119500  0.305500  0.732200  1.0  -0.1774
  N  N259  1  0.016000  0.165200  0.808900  1.0  -0.2711
  N  N260  1  0.841300  0.415400  0.069200  1.0  -0.4274
  N  N261  1  0.795600  0.505100  0.171700  1.0  -0.4023
  N  N262  1  0.892800  0.430900  0.725800  1.0  -0.4394
  N  N263  1  0.165000  0.250300  0.672200  1.0  -0.3671
  N  N264  1  0.029000  0.263500  0.808500  1.0  -0.4061
  N  N265  1  0.055900  0.376500  0.889200  1.0  -0.2554
  N  N266  1  0.949200  0.391900  0.056300  1.0  -0.2517
  N  N267  1  0.050700  0.379200  0.979000  1.0  -0.2453
  N  N268  1  0.094900  0.434200  0.102200  1.0  -0.3132
  N  N269  1  0.933700  0.446300  0.033700  1.0  -0.2206
  N  N270  1  0.150600  0.494900  0.168600  1.0  -0.4089
  N  N271  1  0.035700  0.432800  0.954900  1.0  -0.3088
  N  N272  1  0.080300  0.486500  0.076400  1.0  -0.3274
  N  N273  1  0.495600  0.091900  0.200200  1.0  -0.3394
  N  N274  1  0.645000  0.054000  0.253300  1.0  -0.2398
  N  N275  1  0.622000  0.162500  0.182500  1.0  -0.3157
  N  N276  1  0.482000  0.317200  0.250600  1.0  -0.3768
  N  N277  1  0.496200  0.120200  0.251900  1.0  -0.298
  N  N278  1  0.650200  0.085400  0.303000  1.0  -0.1435
  N  N279  1  0.619500  0.194500  0.232200  1.0  -0.1777
  N  N280  1  0.516000  0.334800  0.308900  1.0  -0.271
  N  N281  1  0.341300  0.084600  0.569200  1.0  -0.4276
  N  N282  1  0.295600  0.994900  0.671700  1.0  -0.4013
  N  N283  1  0.392800  0.069100  0.225800  1.0  -0.4403
  N  N284  1  0.665000  0.249700  0.172200  1.0  -0.3704
  N  N285  1  0.529000  0.236500  0.308500  1.0  -0.4069
  N  N286  1  0.555900  0.123500  0.389200  1.0  -0.255
  N  N287  1  0.449200  0.108100  0.556300  1.0  -0.2511
  N  N288  1  0.550700  0.120800  0.479000  1.0  -0.246
  N  N289  1  0.594900  0.065800  0.602200  1.0  -0.3131
  N  N290  1  0.433700  0.053700  0.533700  1.0  -0.2208
  N  N291  1  0.650600  0.005100  0.668600  1.0  -0.4099
  N  N292  1  0.535700  0.067200  0.454900  1.0  -0.3084
  N  N293  1  0.580300  0.013500  0.576400  1.0  -0.3273
  N  N294  1  0.004400  0.591900  0.299800  1.0  -0.3399
  N  N295  1  0.855000  0.554000  0.246700  1.0  -0.2388
  N  N296  1  0.878000  0.662500  0.317500  1.0  -0.3142
  N  N297  1  0.018000  0.817200  0.249400  1.0  -0.3764
  N  N298  1  0.003800  0.620200  0.248100  1.0  -0.2982
  N  N299  1  0.849800  0.585400  0.197000  1.0  -0.1437
  N  N300  1  0.880500  0.694500  0.267800  1.0  -0.1755
  N  N301  1  0.984000  0.834800  0.191100  1.0  -0.2715
  N  N302  1  0.158700  0.584600  0.930800  1.0  -0.4255
  N  N303  1  0.204400  0.494900  0.828300  1.0  -0.4029
  N  N304  1  0.107200  0.569100  0.274200  1.0  -0.4407
  N  N305  1  0.835000  0.749700  0.327800  1.0  -0.3703
  N  N306  1  0.971000  0.736500  0.191500  1.0  -0.4064
  N  N307  1  0.944100  0.623500  0.110800  1.0  -0.248
  N  N308  1  0.050800  0.608100  0.943700  1.0  -0.2514
  N  N309  1  0.949300  0.620800  0.021000  1.0  -0.2454
  N  N310  1  0.905100  0.565800  0.897800  1.0  -0.3145
  N  N311  1  0.066300  0.553700  0.966300  1.0  -0.2205
  N  N312  1  0.849400  0.505100  0.831400  1.0  -0.411
  N  N313  1  0.964300  0.567200  0.045100  1.0  -0.3088
  N  N314  1  0.919700  0.513500  0.923600  1.0  -0.3286
  O  O315  1  0.742400  0.760100  0.031300  1.0  -0.7258
  O  O316  1  0.723600  0.870400  0.050300  1.0  -0.7679
  O  O317  1  0.649700  0.793600  0.091100  1.0  -0.7419
  O  O318  1  0.590700  0.860900  0.988500  1.0  -0.7325
  O  O319  1  0.607800  0.751700  0.969600  1.0  -0.7593
  O  O320  1  0.783800  0.804200  0.141100  1.0  -0.7277
  O  O321  1  0.719600  0.717000  0.183900  1.0  -0.7718
  O  O322  1  0.681000  0.674500  0.077700  1.0  -0.7342
  O  O323  1  0.827300  0.696300  0.125900  1.0  -0.7457
  O  O324  1  0.788800  0.922300  0.158100  1.0  -0.8036
  O  O325  1  0.700300  0.848200  0.206300  1.0  -0.7969
  O  O326  1  0.637200  0.911000  0.117600  1.0  -0.7397
  O  O327  1  0.584400  0.767400  0.172300  1.0  -0.8113
  O  O328  1  0.545600  0.726700  0.068800  1.0  -0.7842
  O  O329  1  0.527300  0.830700  0.085500  1.0  -0.7804
  O  O330  1  0.479000  0.790700  0.965100  1.0  -0.8391
  O  O331  1  0.465200  0.902700  0.920000  1.0  -0.7804
  O  O332  1  0.512900  0.931900  0.041200  1.0  -0.7043
  O  O333  1  0.397600  0.865900  0.007000  1.0  -0.7665
  O  O334  1  0.500900  0.701200  0.887500  1.0  -0.7975
  O  O335  1  0.563700  0.646900  0.994000  1.0  -0.7565
  O  O336  1  0.427300  0.688800  0.975800  1.0  -0.7553
  O  O337  1  0.612900  0.646500  0.161700  1.0  -0.7055
  O  O338  1  0.672100  0.760400  0.276900  1.0  -0.7095
  O  O339  1  0.566300  0.680600  0.257000  1.0  -0.7582
  O  O340  1  0.499700  0.612900  0.080900  1.0  -0.7758
  O  O341  1  0.570900  0.885300  0.200300  1.0  -0.7589
  O  O342  1  0.545400  0.807600  0.274600  1.0  -0.79
  O  O343  1  0.667800  0.873500  0.313200  1.0  -0.8015
  O  O344  1  0.551900  0.993400  0.147200  1.0  -0.8187
  O  O345  1  0.444700  0.915300  0.130600  1.0  -0.766
  O  O346  1  0.307500  0.898900  0.077400  1.0  -0.7409
  O  O347  1  0.377500  0.806100  0.111300  1.0  -0.8001
  O  O348  1  0.233000  0.797600  0.048700  1.0  -0.7322
  O  O349  1  0.329300  0.765200  0.989200  1.0  -0.6949
  O  O350  1  0.356900  0.613200  0.029500  1.0  -0.727
  O  O351  1  0.396700  0.700300  0.093500  1.0  -0.7788
  O  O352  1  0.252000  0.689100  0.030700  1.0  -0.7201
  O  O353  1  0.464400  0.620700  0.186300  1.0  -0.7765
  O  O354  1  0.466700  0.723600  0.311000  1.0  -0.7691
  O  O355  1  0.437700  0.741700  0.196500  1.0  -0.8403
  O  O356  1  0.367900  0.652500  0.245700  1.0  -0.7906
  O  O357  1  0.324800  0.609800  0.137800  1.0  -0.7801
  O  O358  1  0.423400  0.858800  0.224600  1.0  -0.7784
  O  O359  1  0.454400  0.832400  0.346800  1.0  -0.814
  O  O360  1  0.348600  0.782800  0.266700  1.0  -0.7709
  O  O361  1  0.285200  0.849400  0.179800  1.0  -0.7605
  O  O362  1  0.340400  0.957500  0.187600  1.0  -0.8135
  O  O363  1  0.306100  0.730000  0.151100  1.0  -0.7992
  O  O364  1  0.197700  0.663000  0.126000  1.0  -0.6969
  O  O365  1  0.179200  0.773500  0.144800  1.0  -0.6723
  O  O366  1  0.513200  0.593800  0.629100  1.0  -0.4426
  O  O367  1  0.241900  0.706400  0.235500  1.0  -0.7176
  O  O368  1  0.241400  0.587900  0.222200  1.0  -0.8203
  O  O369  1  0.482500  0.784100  0.452300  1.0  -0.718
  O  O370  1  0.757600  0.260100  0.468700  1.0  -0.7218
  O  O371  1  0.776400  0.370400  0.449700  1.0  -0.7638
  O  O372  1  0.850300  0.293600  0.408900  1.0  -0.7415
  O  O373  1  0.909300  0.360900  0.511500  1.0  -0.7347
  O  O374  1  0.892200  0.251700  0.530400  1.0  -0.7614
  O  O375  1  0.716200  0.304200  0.358900  1.0  -0.7286
  O  O376  1  0.780400  0.217000  0.316100  1.0  -0.7729
  O  O377  1  0.819000  0.174500  0.422300  1.0  -0.7335
  O  O378  1  0.672700  0.196300  0.374100  1.0  -0.7445
  O  O379  1  0.711200  0.422300  0.341900  1.0  -0.8038
  O  O380  1  0.799700  0.348200  0.293700  1.0  -0.7971
  O  O381  1  0.862800  0.411000  0.382400  1.0  -0.7399
  O  O382  1  0.915600  0.267400  0.327700  1.0  -0.813
  O  O383  1  0.954400  0.226700  0.431200  1.0  -0.783
  O  O384  1  0.972700  0.330700  0.414500  1.0  -0.7805
  O  O385  1  0.021000  0.290700  0.534900  1.0  -0.8385
  O  O386  1  0.034800  0.402700  0.580000  1.0  -0.7801
  O  O387  1  0.987100  0.431900  0.458800  1.0  -0.7012
  O  O388  1  0.102400  0.365900  0.493000  1.0  -0.7633
  O  O389  1  0.999100  0.201200  0.612500  1.0  -0.7966
  O  O390  1  0.936300  0.146900  0.506000  1.0  -0.759
  O  O391  1  0.072700  0.188800  0.524200  1.0  -0.7535
  O  O392  1  0.887100  0.146500  0.338300  1.0  -0.7058
  O  O393  1  0.827900  0.260400  0.223100  1.0  -0.7096
  O  O394  1  0.933700  0.180600  0.243000  1.0  -0.755
  O  O395  1  0.000300  0.112900  0.419100  1.0  -0.7771
  O  O396  1  0.929100  0.385300  0.299700  1.0  -0.7585
  O  O397  1  0.954600  0.307600  0.225400  1.0  -0.7916
  O  O398  1  0.832200  0.373500  0.186800  1.0  -0.8008
  O  O399  1  0.948100  0.493400  0.352800  1.0  -0.8193
  O  O400  1  0.055300  0.415300  0.369400  1.0  -0.7651
  O  O401  1  0.192500  0.398900  0.422600  1.0  -0.7402
  O  O402  1  0.122500  0.306100  0.388700  1.0  -0.7998
  O  O403  1  0.267000  0.297600  0.451300  1.0  -0.7304
  O  O404  1  0.170700  0.265200  0.510800  1.0  -0.6935
  O  O405  1  0.143100  0.113200  0.470500  1.0  -0.7273
  O  O406  1  0.103300  0.200300  0.406500  1.0  -0.7779
  O  O407  1  0.248000  0.189100  0.469300  1.0  -0.7168
  O  O408  1  0.035600  0.120700  0.313700  1.0  -0.7759
  O  O409  1  0.033300  0.223600  0.189000  1.0  -0.7687
  O  O410  1  0.062300  0.241700  0.303500  1.0  -0.8392
  O  O411  1  0.132100  0.152500  0.254300  1.0  -0.7875
  O  O412  1  0.175200  0.109800  0.362200  1.0  -0.7795
  O  O413  1  0.076600  0.358800  0.275400  1.0  -0.7785
  O  O414  1  0.045600  0.332400  0.153200  1.0  -0.8139
  O  O415  1  0.151400  0.282800  0.233300  1.0  -0.7734
  O  O416  1  0.214800  0.349400  0.320200  1.0  -0.7592
  O  O417  1  0.159600  0.457500  0.312400  1.0  -0.8133
  O  O418  1  0.193900  0.230000  0.348900  1.0  -0.8002
  O  O419  1  0.302300  0.163000  0.374000  1.0  -0.6955
  O  O420  1  0.320800  0.273500  0.355200  1.0  -0.6726
  O  O421  1  0.986800  0.093800  0.870900  1.0  -0.4401
  O  O422  1  0.258100  0.206400  0.264500  1.0  -0.7205
  O  O423  1  0.258600  0.087900  0.277800  1.0  -0.823
  O  O424  1  0.017500  0.284100  0.047700  1.0  -0.7184
  O  O425  1  0.257600  0.239900  0.968700  1.0  -0.7208
  O  O426  1  0.276400  0.129600  0.949700  1.0  -0.7674
  O  O427  1  0.350300  0.206400  0.908900  1.0  -0.7415
  O  O428  1  0.409300  0.139100  0.011500  1.0  -0.7343
  O  O429  1  0.392200  0.248300  0.030400  1.0  -0.7613
  O  O430  1  0.216200  0.195800  0.858900  1.0  -0.7299
  O  O431  1  0.280400  0.283000  0.816100  1.0  -0.7719
  O  O432  1  0.319000  0.325500  0.922300  1.0  -0.7356
  O  O433  1  0.172700  0.303700  0.874100  1.0  -0.7442
  O  O434  1  0.211200  0.077700  0.841900  1.0  -0.8047
  O  O435  1  0.299700  0.151800  0.793700  1.0  -0.797
  O  O436  1  0.362800  0.089000  0.882400  1.0  -0.7374
  O  O437  1  0.415600  0.232600  0.827700  1.0  -0.8129
  O  O438  1  0.454400  0.273300  0.931200  1.0  -0.7822
  O  O439  1  0.472700  0.169300  0.914500  1.0  -0.7808
  O  O440  1  0.521000  0.209300  0.034900  1.0  -0.8385
  O  O441  1  0.534800  0.097300  0.080000  1.0  -0.7786
  O  O442  1  0.487100  0.068100  0.958800  1.0  -0.7053
  O  O443  1  0.602400  0.134100  0.993000  1.0  -0.7625
  O  O444  1  0.499100  0.298800  0.112500  1.0  -0.7964
  O  O445  1  0.436300  0.353100  0.006000  1.0  -0.7552
  O  O446  1  0.572700  0.311200  0.024200  1.0  -0.7543
  O  O447  1  0.387100  0.353500  0.838300  1.0  -0.7016
  O  O448  1  0.327900  0.239600  0.723100  1.0  -0.7095
  O  O449  1  0.433700  0.319400  0.743000  1.0  -0.7553
  O  O450  1  0.500300  0.387100  0.919100  1.0  -0.7729
  O  O451  1  0.429100  0.114700  0.799700  1.0  -0.7583
  O  O452  1  0.454600  0.192400  0.725400  1.0  -0.7915
  O  O453  1  0.332200  0.126500  0.686800  1.0  -0.801
  O  O454  1  0.448100  0.006600  0.852800  1.0  -0.8205
  O  O455  1  0.555300  0.084700  0.869400  1.0  -0.766
  O  O456  1  0.692500  0.101100  0.922600  1.0  -0.7424
  O  O457  1  0.622500  0.193900  0.888700  1.0  -0.8
  O  O458  1  0.767000  0.202400  0.951300  1.0  -0.7335
  O  O459  1  0.670700  0.234800  0.010800  1.0  -0.6937
  O  O460  1  0.643100  0.386800  0.970500  1.0  -0.7255
  O  O461  1  0.603300  0.299700  0.906500  1.0  -0.7781
  O  O462  1  0.748000  0.310900  0.969300  1.0  -0.7163
  O  O463  1  0.535600  0.379300  0.813700  1.0  -0.7727
  O  O464  1  0.533300  0.276400  0.689000  1.0  -0.7731
  O  O465  1  0.562300  0.258300  0.803500  1.0  -0.8389
  O  O466  1  0.632100  0.347500  0.754300  1.0  -0.7893
  O  O467  1  0.675200  0.390200  0.862200  1.0  -0.7782
  O  O468  1  0.576600  0.141200  0.775400  1.0  -0.7785
  O  O469  1  0.545600  0.167600  0.653200  1.0  -0.8144
  O  O470  1  0.651400  0.217200  0.733300  1.0  -0.7733
  O  O471  1  0.714800  0.150600  0.820200  1.0  -0.7579
  O  O472  1  0.659600  0.042500  0.812400  1.0  -0.8135
  O  O473  1  0.693900  0.270000  0.848900  1.0  -0.8
  O  O474  1  0.802300  0.337000  0.874000  1.0  -0.6949
  O  O475  1  0.820800  0.226500  0.855200  1.0  -0.673
  O  O476  1  0.486800  0.406200  0.370900  1.0  -0.4396
  O  O477  1  0.758100  0.293600  0.764500  1.0  -0.7203
  O  O478  1  0.758600  0.412100  0.777800  1.0  -0.8233
  O  O479  1  0.517500  0.215900  0.547700  1.0  -0.7165
  O  O480  1  0.242400  0.739900  0.531300  1.0  -0.7257
  O  O481  1  0.223600  0.629600  0.550300  1.0  -0.7628
  O  O482  1  0.149700  0.706400  0.591100  1.0  -0.7424
  O  O483  1  0.090700  0.639100  0.488500  1.0  -0.7309
  O  O484  1  0.107800  0.748300  0.469600  1.0  -0.7598
  O  O485  1  0.283800  0.695800  0.641100  1.0  -0.7287
  O  O486  1  0.219600  0.783000  0.683900  1.0  -0.7715
  O  O487  1  0.181000  0.825500  0.577700  1.0  -0.7384
  O  O488  1  0.327300  0.803700  0.625900  1.0  -0.7451
  O  O489  1  0.288800  0.577700  0.658100  1.0  -0.8046
  O  O490  1  0.200300  0.651800  0.706300  1.0  -0.7969
  O  O491  1  0.137200  0.589000  0.617600  1.0  -0.7371
  O  O492  1  0.084400  0.732600  0.672300  1.0  -0.8116
  O  O493  1  0.045600  0.773300  0.568800  1.0  -0.7835
  O  O494  1  0.027300  0.669300  0.585500  1.0  -0.7805
  O  O495  1  0.979000  0.709300  0.465100  1.0  -0.8391
  O  O496  1  0.965200  0.597300  0.420000  1.0  -0.7787
  O  O497  1  0.012900  0.568100  0.541200  1.0  -0.7048
  O  O498  1  0.897600  0.634100  0.507000  1.0  -0.7653
  O  O499  1  0.000900  0.798800  0.387500  1.0  -0.7971
  O  O500  1  0.063700  0.853100  0.494000  1.0  -0.7574
  O  O501  1  0.927300  0.811200  0.475800  1.0  -0.7577
  O  O502  1  0.112900  0.853500  0.661700  1.0  -0.7015
  O  O503  1  0.172100  0.739600  0.776900  1.0  -0.7088
  O  O504  1  0.066300  0.819400  0.757000  1.0  -0.7553
  O  O505  1  0.999700  0.887100  0.580900  1.0  -0.7719
  O  O506  1  0.070900  0.614700  0.700300  1.0  -0.7585
  O  O507  1  0.045400  0.692400  0.774600  1.0  -0.7898
  O  O508  1  0.167800  0.626500  0.813200  1.0  -0.8017
  O  O509  1  0.051900  0.506600  0.647200  1.0  -0.8195
  O  O510  1  0.944700  0.584700  0.630600  1.0  -0.7665
  O  O511  1  0.807500  0.601100  0.577400  1.0  -0.7413
  O  O512  1  0.877500  0.693900  0.611300  1.0  -0.8004
  O  O513  1  0.733000  0.702400  0.548700  1.0  -0.7339
  O  O514  1  0.829300  0.734800  0.489200  1.0  -0.6945
  O  O515  1  0.856900  0.886800  0.529500  1.0  -0.7271
  O  O516  1  0.896700  0.799700  0.593500  1.0  -0.7783
  O  O517  1  0.752000  0.810900  0.530700  1.0  -0.72
  O  O518  1  0.964400  0.879300  0.686300  1.0  -0.771
  O  O519  1  0.966700  0.776400  0.811000  1.0  -0.7664
  O  O520  1  0.937700  0.758300  0.696500  1.0  -0.8402
  O  O521  1  0.867900  0.847500  0.745700  1.0  -0.7858
  O  O522  1  0.824800  0.890200  0.637800  1.0  -0.7781
  O  O523  1  0.923400  0.641200  0.724600  1.0  -0.7787
  O  O524  1  0.954400  0.667600  0.846800  1.0  -0.8148
  O  O525  1  0.848600  0.717200  0.766700  1.0  -0.7711
  O  O526  1  0.785200  0.650600  0.679800  1.0  -0.759
  O  O527  1  0.840400  0.542500  0.687600  1.0  -0.8134
  O  O528  1  0.806100  0.770000  0.651100  1.0  -0.7991
  O  O529  1  0.697700  0.837000  0.626000  1.0  -0.6967
  O  O530  1  0.679200  0.726500  0.644800  1.0  -0.6724
  O  O531  1  0.013200  0.906200  0.129100  1.0  -0.4427
  O  O532  1  0.741900  0.793600  0.735500  1.0  -0.7179
  O  O533  1  0.741400  0.912100  0.722200  1.0  -0.82
  O  O534  1  0.982500  0.715900  0.952300  1.0  -0.7163
