# generated using pymatgen
data_Co2H10C18(NO2)3
_symmetry_space_group_name_H-M   'P 1'
_cell_length_a   12.32900000
_cell_length_b   21.69000000
_cell_length_c   17.43500000
_cell_angle_alpha   90.00000000
_cell_angle_beta   96.32000000
_cell_angle_gamma   90.00000000
_symmetry_Int_Tables_number   1
_chemical_formula_structural   Co2H10C18(NO2)3
_chemical_formula_sum   'Co16 H80 C144 N24 O48'
_cell_volume   4634.06283117
_cell_formula_units_Z   8
loop_
 _symmetry_equiv_pos_site_id
 _symmetry_equiv_pos_as_xyz
  1  'x, y, z'
loop_
 _atom_site_type_symbol
 _atom_site_label
 _atom_site_symmetry_multiplicity
 _atom_site_fract_x
 _atom_site_fract_y
 _atom_site_fract_z
 _atom_site_occupancy
 _atom_site_charge
  Co  Co1  1  0.763650  0.384260  0.893180  1.0  1.0702
  Co  Co2  1  0.263650  0.884260  0.893180  1.0  1.0702
  Co  Co3  1  0.236350  0.384260  0.606820  1.0  1.073
  Co  Co4  1  0.736350  0.884260  0.606820  1.0  1.073
  Co  Co5  1  0.236350  0.615740  0.106820  1.0  1.0663
  Co  Co6  1  0.736350  0.115740  0.106820  1.0  1.0663
  Co  Co7  1  0.763650  0.615740  0.393180  1.0  1.0645
  Co  Co8  1  0.263650  0.115740  0.393180  1.0  1.0645
  Co  Co9  1  0.750000  0.250000  0.000000  1.0  1.0149
  Co  Co10  1  0.250000  0.250000  0.500000  1.0  1.0149
  Co  Co11  1  0.250000  0.750000  0.000000  1.0  1.0149
  Co  Co12  1  0.750000  0.750000  0.500000  1.0  1.0149
  Co  Co13  1  0.500000  0.402290  0.750000  1.0  0.8954
  Co  Co14  1  0.000000  0.902290  0.750000  1.0  0.8954
  Co  Co15  1  0.500000  0.597710  0.250000  1.0  0.8937
  Co  Co16  1  0.000000  0.097710  0.250000  1.0  0.8937
  H  H17  1  0.877900  0.328500  0.156500  1.0  0.098
  H  H18  1  0.897100  0.349400  0.287200  1.0  0.1013
  H  H19  1  0.821900  0.437200  0.333000  1.0  0.1187
  H  H20  1  0.694300  0.480400  0.117700  1.0  0.1152
  H  H21  1  0.600600  0.348300  0.167800  1.0  0.1021
  H  H22  1  0.305000  0.321600  0.799500  1.0  0.1249
  H  H23  1  0.209700  0.243200  0.860200  1.0  0.1004
  H  H24  1  0.299600  0.183300  0.957500  1.0  0.11
  H  H25  1  0.485000  0.196900  0.995600  1.0  0.1315
  H  H26  1  0.377900  0.828500  0.156500  1.0  0.098
  H  H27  1  0.397100  0.849400  0.287200  1.0  0.1013
  H  H28  1  0.321900  0.937200  0.333000  1.0  0.1187
  H  H29  1  0.194300  0.980400  0.117700  1.0  0.1152
  H  H30  1  0.100600  0.848300  0.167800  1.0  0.1021
  H  H31  1  0.805000  0.821600  0.799500  1.0  0.1249
  H  H32  1  0.709700  0.743200  0.860200  1.0  0.1004
  H  H33  1  0.799600  0.683300  0.957500  1.0  0.11
  H  H34  1  0.985000  0.696900  0.995600  1.0  0.1315
  H  H35  1  0.122100  0.328500  0.343500  1.0  0.0982
  H  H36  1  0.102900  0.349400  0.212800  1.0  0.1013
  H  H37  1  0.178100  0.437200  0.167000  1.0  0.1182
  H  H38  1  0.305700  0.480400  0.382300  1.0  0.1148
  H  H39  1  0.399400  0.348300  0.332200  1.0  0.1018
  H  H40  1  0.695000  0.321600  0.700500  1.0  0.1241
  H  H41  1  0.790300  0.243200  0.639800  1.0  0.1002
  H  H42  1  0.700400  0.183300  0.542500  1.0  0.1097
  H  H43  1  0.515000  0.196900  0.504400  1.0  0.1308
  H  H44  1  0.622100  0.828500  0.343500  1.0  0.0982
  H  H45  1  0.602900  0.849400  0.212800  1.0  0.1013
  H  H46  1  0.678100  0.937200  0.167000  1.0  0.1182
  H  H47  1  0.805700  0.980400  0.382300  1.0  0.1148
  H  H48  1  0.899400  0.848300  0.332200  1.0  0.1018
  H  H49  1  0.195000  0.821600  0.700500  1.0  0.1241
  H  H50  1  0.290300  0.743200  0.639800  1.0  0.1002
  H  H51  1  0.200400  0.683300  0.542500  1.0  0.1097
  H  H52  1  0.015000  0.696900  0.504400  1.0  0.1308
  H  H53  1  0.122100  0.671500  0.843500  1.0  0.0983
  H  H54  1  0.102900  0.650600  0.712800  1.0  0.1012
  H  H55  1  0.178100  0.562800  0.667000  1.0  0.1182
  H  H56  1  0.305700  0.519600  0.882300  1.0  0.1149
  H  H57  1  0.399400  0.651700  0.832200  1.0  0.1019
  H  H58  1  0.695000  0.678400  0.200500  1.0  0.1245
  H  H59  1  0.790300  0.756800  0.139800  1.0  0.1001
  H  H60  1  0.700400  0.816700  0.042500  1.0  0.1097
  H  H61  1  0.515000  0.803100  0.004400  1.0  0.131
  H  H62  1  0.622100  0.171500  0.843500  1.0  0.0983
  H  H63  1  0.602900  0.150600  0.712800  1.0  0.1012
  H  H64  1  0.678100  0.062800  0.667000  1.0  0.1182
  H  H65  1  0.805700  0.019600  0.882300  1.0  0.1149
  H  H66  1  0.899400  0.151700  0.832200  1.0  0.1019
  H  H67  1  0.195000  0.178400  0.200500  1.0  0.1245
  H  H68  1  0.290300  0.256800  0.139800  1.0  0.1001
  H  H69  1  0.200400  0.316700  0.042500  1.0  0.1097
  H  H70  1  0.015000  0.303100  0.004400  1.0  0.131
  H  H71  1  0.877900  0.671500  0.656500  1.0  0.098
  H  H72  1  0.897100  0.650600  0.787200  1.0  0.1011
  H  H73  1  0.821900  0.562800  0.833000  1.0  0.1187
  H  H74  1  0.694300  0.519600  0.617700  1.0  0.1145
  H  H75  1  0.600600  0.651700  0.667800  1.0  0.1019
  H  H76  1  0.305000  0.678400  0.299500  1.0  0.1247
  H  H77  1  0.209700  0.756800  0.360200  1.0  0.1
  H  H78  1  0.299600  0.816700  0.457500  1.0  0.1099
  H  H79  1  0.485000  0.803100  0.495600  1.0  0.1314
  H  H80  1  0.377900  0.171500  0.656500  1.0  0.098
  H  H81  1  0.397100  0.150600  0.787200  1.0  0.1011
  H  H82  1  0.321900  0.062800  0.833000  1.0  0.1187
  H  H83  1  0.194300  0.019600  0.617700  1.0  0.1145
  H  H84  1  0.100600  0.151700  0.667800  1.0  0.1019
  H  H85  1  0.805000  0.178400  0.299500  1.0  0.1247
  H  H86  1  0.709700  0.256800  0.360200  1.0  0.1
  H  H87  1  0.799600  0.316700  0.457500  1.0  0.1099
  H  H88  1  0.985000  0.303100  0.495600  1.0  0.1314
  H  H89  1  0.500000  0.188000  0.250000  1.0  0.1162
  H  H90  1  0.500000  0.400700  0.250000  1.0  0.099
  H  H91  1  0.000000  0.688000  0.250000  1.0  0.1162
  H  H92  1  0.000000  0.900700  0.250000  1.0  0.099
  H  H93  1  0.500000  0.812000  0.750000  1.0  0.116
  H  H94  1  0.500000  0.599300  0.750000  1.0  0.099
  H  H95  1  0.000000  0.312000  0.750000  1.0  0.116
  H  H96  1  0.000000  0.099300  0.750000  1.0  0.099
  C  C97  1  0.786800  0.403600  0.123700  1.0  -0.1164
  C  C98  1  0.846200  0.363600  0.174900  1.0  -0.0314
  C  C99  1  0.857900  0.376200  0.253000  1.0  -0.1009
  C  C100  1  0.811600  0.428300  0.280500  1.0  -0.0314
  C  C101  1  0.749300  0.468000  0.230300  1.0  -0.1309
  C  C102  1  0.736600  0.454800  0.151600  1.0  -0.0054
  C  C103  1  0.776000  0.391100  0.038500  1.0  0.691
  C  C104  1  0.695700  0.524200  0.259800  1.0  0.7387
  C  C105  1  0.561500  0.262700  0.201000  1.0  -0.1461
  C  C106  1  0.560400  0.326600  0.201000  1.0  -0.0149
  C  C107  1  0.631200  0.229100  0.148800  1.0  0.6969
  C  C108  1  0.450000  0.301400  0.863800  1.0  0.1141
  C  C109  1  0.339500  0.296400  0.838000  1.0  -0.0759
  C  C110  1  0.283600  0.249700  0.875000  1.0  -0.1273
  C  C111  1  0.338200  0.213300  0.933700  1.0  -0.112
  C  C112  1  0.449100  0.221200  0.956900  1.0  -0.0915
  C  C113  1  0.504400  0.266500  0.920400  1.0  0.1527
  C  C114  1  0.286800  0.903600  0.123700  1.0  -0.1164
  C  C115  1  0.346200  0.863600  0.174900  1.0  -0.0314
  C  C116  1  0.357900  0.876200  0.253000  1.0  -0.1009
  C  C117  1  0.311600  0.928300  0.280500  1.0  -0.0314
  C  C118  1  0.249300  0.968000  0.230300  1.0  -0.1309
  C  C119  1  0.236600  0.954800  0.151600  1.0  -0.0054
  C  C120  1  0.276000  0.891100  0.038500  1.0  0.691
  C  C121  1  0.195700  0.024200  0.259800  1.0  0.7387
  C  C122  1  0.061500  0.762700  0.201000  1.0  -0.1461
  C  C123  1  0.060400  0.826600  0.201000  1.0  -0.0149
  C  C124  1  0.131200  0.729100  0.148800  1.0  0.6969
  C  C125  1  0.950000  0.801400  0.863800  1.0  0.1141
  C  C126  1  0.839500  0.796400  0.838000  1.0  -0.0759
  C  C127  1  0.783600  0.749700  0.875000  1.0  -0.1273
  C  C128  1  0.838200  0.713300  0.933700  1.0  -0.112
  C  C129  1  0.949100  0.721200  0.956900  1.0  -0.0915
  C  C130  1  0.004400  0.766500  0.920400  1.0  0.1527
  C  C131  1  0.213200  0.403600  0.376300  1.0  -0.1168
  C  C132  1  0.153800  0.363600  0.325100  1.0  -0.0299
  C  C133  1  0.142100  0.376200  0.247000  1.0  -0.1015
  C  C134  1  0.188400  0.428300  0.219500  1.0  -0.0331
  C  C135  1  0.250700  0.468000  0.269700  1.0  -0.131
  C  C136  1  0.263400  0.454800  0.348400  1.0  -0.0057
  C  C137  1  0.224000  0.391100  0.461500  1.0  0.689
  C  C138  1  0.304300  0.524200  0.240200  1.0  0.7381
  C  C139  1  0.438500  0.262700  0.299000  1.0  -0.1456
  C  C140  1  0.439600  0.326600  0.299000  1.0  -0.0143
  C  C141  1  0.368800  0.229100  0.351200  1.0  0.6977
  C  C142  1  0.550000  0.301400  0.636200  1.0  0.1148
  C  C143  1  0.660500  0.296400  0.662000  1.0  -0.0774
  C  C144  1  0.716400  0.249700  0.625000  1.0  -0.1225
  C  C145  1  0.661800  0.213300  0.566300  1.0  -0.1128
  C  C146  1  0.550900  0.221200  0.543100  1.0  -0.0923
  C  C147  1  0.495600  0.266500  0.579600  1.0  0.1544
  C  C148  1  0.713200  0.903600  0.376300  1.0  -0.1168
  C  C149  1  0.653800  0.863600  0.325100  1.0  -0.0299
  C  C150  1  0.642100  0.876200  0.247000  1.0  -0.1015
  C  C151  1  0.688400  0.928300  0.219500  1.0  -0.0331
  C  C152  1  0.750700  0.968000  0.269700  1.0  -0.131
  C  C153  1  0.763400  0.954800  0.348400  1.0  -0.0057
  C  C154  1  0.724000  0.891100  0.461500  1.0  0.689
  C  C155  1  0.804300  0.024200  0.240200  1.0  0.7381
  C  C156  1  0.938500  0.762700  0.299000  1.0  -0.1456
  C  C157  1  0.939600  0.826600  0.299000  1.0  -0.0143
  C  C158  1  0.868800  0.729100  0.351200  1.0  0.6977
  C  C159  1  0.050000  0.801400  0.636200  1.0  0.1148
  C  C160  1  0.160500  0.796400  0.662000  1.0  -0.0774
  C  C161  1  0.216400  0.749700  0.625000  1.0  -0.1225
  C  C162  1  0.161800  0.713300  0.566300  1.0  -0.1128
  C  C163  1  0.050900  0.721200  0.543100  1.0  -0.0923
  C  C164  1  0.995600  0.766500  0.579600  1.0  0.1544
  C  C165  1  0.213200  0.596400  0.876300  1.0  -0.1169
  C  C166  1  0.153800  0.636400  0.825100  1.0  -0.0298
  C  C167  1  0.142100  0.623800  0.747000  1.0  -0.1021
  C  C168  1  0.188400  0.571700  0.719500  1.0  -0.0312
  C  C169  1  0.250700  0.532000  0.769700  1.0  -0.1336
  C  C170  1  0.263400  0.545200  0.848400  1.0  -0.0068
  C  C171  1  0.224000  0.608900  0.961500  1.0  0.6915
  C  C172  1  0.304300  0.475800  0.740200  1.0  0.7382
  C  C173  1  0.438500  0.737300  0.799000  1.0  -0.1457
  C  C174  1  0.439600  0.673400  0.799000  1.0  -0.0148
  C  C175  1  0.368800  0.770900  0.851200  1.0  0.6974
  C  C176  1  0.550000  0.698600  0.136200  1.0  0.1149
  C  C177  1  0.660500  0.703600  0.162000  1.0  -0.0777
  C  C178  1  0.716400  0.750300  0.125000  1.0  -0.1223
  C  C179  1  0.661800  0.786700  0.066300  1.0  -0.1123
  C  C180  1  0.550900  0.778800  0.043100  1.0  -0.0928
  C  C181  1  0.495600  0.733500  0.079600  1.0  0.1544
  C  C182  1  0.713200  0.096400  0.876300  1.0  -0.1169
  C  C183  1  0.653800  0.136400  0.825100  1.0  -0.0298
  C  C184  1  0.642100  0.123800  0.747000  1.0  -0.1021
  C  C185  1  0.688400  0.071700  0.719500  1.0  -0.0312
  C  C186  1  0.750700  0.032000  0.769700  1.0  -0.1336
  C  C187  1  0.763400  0.045200  0.848400  1.0  -0.0068
  C  C188  1  0.724000  0.108900  0.961500  1.0  0.6915
  C  C189  1  0.804300  0.975800  0.740200  1.0  0.7382
  C  C190  1  0.938500  0.237300  0.799000  1.0  -0.1457
  C  C191  1  0.939600  0.173400  0.799000  1.0  -0.0148
  C  C192  1  0.868800  0.270900  0.851200  1.0  0.6974
  C  C193  1  0.050000  0.198600  0.136200  1.0  0.1149
  C  C194  1  0.160500  0.203600  0.162000  1.0  -0.0777
  C  C195  1  0.216400  0.250300  0.125000  1.0  -0.1223
  C  C196  1  0.161800  0.286700  0.066300  1.0  -0.1123
  C  C197  1  0.050900  0.278800  0.043100  1.0  -0.0928
  C  C198  1  0.995600  0.233500  0.079600  1.0  0.1544
  C  C199  1  0.786800  0.596400  0.623700  1.0  -0.1158
  C  C200  1  0.846200  0.636400  0.674900  1.0  -0.0316
  C  C201  1  0.857900  0.623800  0.753000  1.0  -0.1016
  C  C202  1  0.811600  0.571700  0.780500  1.0  -0.0337
  C  C203  1  0.749300  0.532000  0.730300  1.0  -0.134
  C  C204  1  0.736600  0.545200  0.651600  1.0  -0.0058
  C  C205  1  0.776000  0.608900  0.538500  1.0  0.6909
  C  C206  1  0.695700  0.475800  0.759800  1.0  0.7391
  C  C207  1  0.561500  0.737300  0.701000  1.0  -0.1457
  C  C208  1  0.560400  0.673400  0.701000  1.0  -0.0149
  C  C209  1  0.631200  0.770900  0.648800  1.0  0.6971
  C  C210  1  0.450000  0.698600  0.363800  1.0  0.1138
  C  C211  1  0.339500  0.703600  0.338000  1.0  -0.0772
  C  C212  1  0.283600  0.750300  0.375000  1.0  -0.1272
  C  C213  1  0.338200  0.786700  0.433700  1.0  -0.1119
  C  C214  1  0.449100  0.778800  0.456900  1.0  -0.092
  C  C215  1  0.504400  0.733500  0.420400  1.0  0.1529
  C  C216  1  0.286800  0.096400  0.623700  1.0  -0.1158
  C  C217  1  0.346200  0.136400  0.674900  1.0  -0.0316
  C  C218  1  0.357900  0.123800  0.753000  1.0  -0.1016
  C  C219  1  0.311600  0.071700  0.780500  1.0  -0.0337
  C  C220  1  0.249300  0.032000  0.730300  1.0  -0.134
  C  C221  1  0.236600  0.045200  0.651600  1.0  -0.0058
  C  C222  1  0.276000  0.108900  0.538500  1.0  0.6909
  C  C223  1  0.195700  0.975800  0.759800  1.0  0.7391
  C  C224  1  0.061500  0.237300  0.701000  1.0  -0.1457
  C  C225  1  0.060400  0.173400  0.701000  1.0  -0.0149
  C  C226  1  0.131200  0.270900  0.648800  1.0  0.6971
  C  C227  1  0.950000  0.198600  0.363800  1.0  0.1138
  C  C228  1  0.839500  0.203600  0.338000  1.0  -0.0772
  C  C229  1  0.783600  0.250300  0.375000  1.0  -0.1272
  C  C230  1  0.838200  0.286700  0.433700  1.0  -0.1119
  C  C231  1  0.949100  0.278800  0.456900  1.0  -0.092
  C  C232  1  0.004400  0.233500  0.420400  1.0  0.1529
  C  C233  1  0.500000  0.230800  0.250000  1.0  -0.0033
  C  C234  1  0.500000  0.357800  0.250000  1.0  -0.0996
  C  C235  1  0.000000  0.730800  0.250000  1.0  -0.0033
  C  C236  1  0.000000  0.857800  0.250000  1.0  -0.0996
  C  C237  1  0.500000  0.769200  0.750000  1.0  -0.0065
  C  C238  1  0.500000  0.642200  0.750000  1.0  -0.0986
  C  C239  1  0.000000  0.269200  0.750000  1.0  -0.0065
  C  C240  1  0.000000  0.142200  0.750000  1.0  -0.0986
  N  N241  1  0.528000  0.344600  0.840600  1.0  -0.3516
  N  N242  1  0.619200  0.332300  0.882700  1.0  -0.124
  N  N243  1  0.612900  0.286400  0.931000  1.0  -0.3105
  N  N244  1  0.028000  0.844600  0.840600  1.0  -0.3516
  N  N245  1  0.119200  0.832300  0.882700  1.0  -0.124
  N  N246  1  0.112900  0.786400  0.931000  1.0  -0.3105
  N  N247  1  0.472000  0.344600  0.659400  1.0  -0.351
  N  N248  1  0.380800  0.332300  0.617300  1.0  -0.1236
  N  N249  1  0.387100  0.286400  0.569000  1.0  -0.3107
  N  N250  1  0.972000  0.844600  0.659400  1.0  -0.351
  N  N251  1  0.880800  0.832300  0.617300  1.0  -0.1236
  N  N252  1  0.887100  0.786400  0.569000  1.0  -0.3107
  N  N253  1  0.472000  0.655400  0.159400  1.0  -0.3536
  N  N254  1  0.380800  0.667700  0.117300  1.0  -0.125
  N  N255  1  0.387100  0.713600  0.069000  1.0  -0.3102
  N  N256  1  0.972000  0.155400  0.159400  1.0  -0.3536
  N  N257  1  0.880800  0.167700  0.117300  1.0  -0.125
  N  N258  1  0.887100  0.213600  0.069000  1.0  -0.3102
  N  N259  1  0.528000  0.655400  0.340600  1.0  -0.3533
  N  N260  1  0.619200  0.667700  0.382700  1.0  -0.1245
  N  N261  1  0.612900  0.713600  0.431000  1.0  -0.3101
  N  N262  1  0.028000  0.155400  0.340600  1.0  -0.3533
  N  N263  1  0.119200  0.167700  0.382700  1.0  -0.1245
  N  N264  1  0.112900  0.213600  0.431000  1.0  -0.3101
  O  O265  1  0.735300  0.431700  0.992500  1.0  -0.583
  O  O266  1  0.810000  0.341780  0.012800  1.0  -0.6242
  O  O267  1  0.615900  0.545900  0.219100  1.0  -0.5927
  O  O268  1  0.735700  0.543900  0.323900  1.0  -0.678
  O  O269  1  0.664600  0.259900  0.094800  1.0  -0.6071
  O  O270  1  0.648900  0.172880  0.162300  1.0  -0.6152
  O  O271  1  0.235300  0.931700  0.992500  1.0  -0.583
  O  O272  1  0.310000  0.841780  0.012800  1.0  -0.6242
  O  O273  1  0.115900  0.045900  0.219100  1.0  -0.5927
  O  O274  1  0.235700  0.043900  0.323900  1.0  -0.678
  O  O275  1  0.164600  0.759900  0.094800  1.0  -0.6071
  O  O276  1  0.148900  0.672880  0.162300  1.0  -0.6152
  O  O277  1  0.264700  0.431700  0.507500  1.0  -0.5826
  O  O278  1  0.190000  0.341780  0.487200  1.0  -0.6241
  O  O279  1  0.384100  0.545900  0.280900  1.0  -0.5935
  O  O280  1  0.264300  0.543900  0.176100  1.0  -0.6756
  O  O281  1  0.335400  0.259900  0.405200  1.0  -0.6066
  O  O282  1  0.351100  0.172880  0.337700  1.0  -0.6156
  O  O283  1  0.764700  0.931700  0.507500  1.0  -0.5826
  O  O284  1  0.690000  0.841780  0.487200  1.0  -0.6241
  O  O285  1  0.884100  0.045900  0.280900  1.0  -0.5935
  O  O286  1  0.764300  0.043900  0.176100  1.0  -0.6756
  O  O287  1  0.835400  0.759900  0.405200  1.0  -0.6066
  O  O288  1  0.851100  0.672880  0.337700  1.0  -0.6156
  O  O289  1  0.264700  0.568300  0.007500  1.0  -0.5845
  O  O290  1  0.190000  0.658220  0.987200  1.0  -0.6233
  O  O291  1  0.384100  0.454100  0.780900  1.0  -0.5937
  O  O292  1  0.264300  0.456100  0.676100  1.0  -0.6782
  O  O293  1  0.335400  0.740100  0.905200  1.0  -0.6069
  O  O294  1  0.351100  0.827120  0.837700  1.0  -0.6156
  O  O295  1  0.764700  0.068300  0.007500  1.0  -0.5845
  O  O296  1  0.690000  0.158220  0.987200  1.0  -0.6233
  O  O297  1  0.884100  0.954100  0.780900  1.0  -0.5937
  O  O298  1  0.764300  0.956100  0.676100  1.0  -0.6782
  O  O299  1  0.835400  0.240100  0.905200  1.0  -0.6069
  O  O300  1  0.851100  0.327120  0.837700  1.0  -0.6156
  O  O301  1  0.735300  0.568300  0.492500  1.0  -0.5837
  O  O302  1  0.810000  0.658220  0.512800  1.0  -0.6234
  O  O303  1  0.615900  0.454100  0.719100  1.0  -0.5929
  O  O304  1  0.735700  0.456100  0.823900  1.0  -0.6783
  O  O305  1  0.664600  0.740100  0.594800  1.0  -0.6069
  O  O306  1  0.648900  0.827120  0.662300  1.0  -0.6153
  O  O307  1  0.235300  0.068300  0.492500  1.0  -0.5837
  O  O308  1  0.310000  0.158220  0.512800  1.0  -0.6234
  O  O309  1  0.115900  0.954100  0.719100  1.0  -0.5929
  O  O310  1  0.235700  0.956100  0.823900  1.0  -0.6783
  O  O311  1  0.164600  0.240100  0.594800  1.0  -0.6069
  O  O312  1  0.148900  0.327120  0.662300  1.0  -0.6153
