# generated using pymatgen
data_Cu9C19N11
_symmetry_space_group_name_H-M   'P 1'
_cell_length_a   12.21900000
_cell_length_b   16.01500000
_cell_length_c   22.01400000
_cell_angle_alpha   90.00000000
_cell_angle_beta   99.22300000
_cell_angle_gamma   90.00000000
_symmetry_Int_Tables_number   1
_chemical_formula_structural   Cu9C19N11
_chemical_formula_sum   'Cu18 C38 N22'
_cell_volume   4252.16790135
_cell_formula_units_Z   2
loop_
 _symmetry_equiv_pos_site_id
 _symmetry_equiv_pos_as_xyz
  1  'x, y, z'
loop_
 _atom_site_type_symbol
 _atom_site_label
 _atom_site_symmetry_multiplicity
 _atom_site_fract_x
 _atom_site_fract_y
 _atom_site_fract_z
 _atom_site_occupancy
 _atom_site_charge
  Cu  Cu1  1  0.258000  0.669000  0.108890  1.0  0.5128
  Cu  Cu2  1  0.961600  0.663500  0.247340  1.0  0.4694
  Cu  Cu3  1  0.611200  0.508100  0.174760  1.0  0.4511
  Cu  Cu4  1  0.586100  0.198000  0.196890  1.0  0.4405
  Cu  Cu5  1  0.080100  0.598000  0.893410  1.0  0.4621
  Cu  Cu6  1  0.303300  0.979600  0.123490  1.0  0.4812
  Cu  Cu7  1  0.605300  0.206400  0.430220  1.0  0.4963
  Cu  Cu8  1  0.024500  0.799200  0.453960  1.0  0.5192
  Cu  Cu9  1  0.665900  0.908500  0.501480  1.0  0.5056
  Cu  Cu10  1  0.742000  0.169000  0.891110  1.0  0.5114
  Cu  Cu11  1  0.038400  0.163500  0.752660  1.0  0.4686
  Cu  Cu12  1  0.388800  0.008100  0.825240  1.0  0.4507
  Cu  Cu13  1  0.413900  0.698000  0.803110  1.0  0.4411
  Cu  Cu14  1  0.919900  0.098000  0.106590  1.0  0.4615
  Cu  Cu15  1  0.696700  0.479600  0.876510  1.0  0.4811
  Cu  Cu16  1  0.394700  0.706400  0.569780  1.0  0.4963
  Cu  Cu17  1  0.975500  0.299200  0.546040  1.0  0.5208
  Cu  Cu18  1  0.334100  0.408500  0.498520  1.0  0.5059
  C  C19  1  0.190000  0.632000  0.029100  1.0  0.0438
  C  C20  1  0.304500  0.861400  0.114800  1.0  -0.0113
  C  C21  1  0.295000  0.791600  0.109700  1.0  -0.0393
  C  C22  1  0.082000  0.662900  0.199100  1.0  0.0419
  C  C23  1  0.977000  0.721000  0.324600  1.0  -0.0149
  C  C24  1  0.397000  0.607600  0.138200  1.0  0.0337
  C  C25  1  0.474000  0.571100  0.149100  1.0  0.0669
  C  C26  1  0.829000  0.603000  0.222800  1.0  0.0862
  C  C27  1  0.749000  0.569200  0.205100  1.0  0.0705
  C  C28  1  0.597000  0.389300  0.171400  1.0  0.0021
  C  C29  1  0.582000  0.318000  0.174000  1.0  -0.07
  C  C30  1  0.187000  0.635500  0.845600  1.0  -0.021
  C  C31  1  0.933000  0.556000  0.884900  1.0  0.0629
  C  C32  1  0.409000  0.063900  0.147100  1.0  0.1031
  C  C33  1  0.597000  0.203000  0.343200  1.0  -0.0232
  C  C34  1  0.170000  0.777900  0.499200  1.0  -0.0212
  C  C35  1  0.898000  0.847000  0.479500  1.0  -0.0124
  C  C36  1  0.575000  0.823700  0.524700  1.0  0.0097
  C  C37  1  0.631000  0.021000  0.479500  1.0  0.061
  C  C38  1  0.810000  0.132000  0.970900  1.0  0.0448
  C  C39  1  0.695500  0.361400  0.885200  1.0  -0.0127
  C  C40  1  0.705000  0.291600  0.890300  1.0  -0.0388
  C  C41  1  0.918000  0.162900  0.800900  1.0  0.0418
  C  C42  1  0.023000  0.221000  0.675400  1.0  -0.0147
  C  C43  1  0.603000  0.107600  0.861800  1.0  0.0331
  C  C44  1  0.526000  0.071100  0.850900  1.0  0.0688
  C  C45  1  0.171000  0.103000  0.777200  1.0  0.0874
  C  C46  1  0.251000  0.069200  0.794900  1.0  0.0695
  C  C47  1  0.403000  0.889300  0.828600  1.0  0.0013
  C  C48  1  0.418000  0.818000  0.826000  1.0  -0.0699
  C  C49  1  0.813000  0.135500  0.154400  1.0  -0.0212
  C  C50  1  0.067000  0.056000  0.115100  1.0  0.0624
  C  C51  1  0.591000  0.563900  0.852900  1.0  0.1037
  C  C52  1  0.403000  0.703000  0.656800  1.0  -0.0231
  C  C53  1  0.830000  0.277900  0.500800  1.0  -0.0221
  C  C54  1  0.102000  0.347000  0.520500  1.0  -0.0106
  C  C55  1  0.425000  0.323700  0.475300  1.0  0.0078
  C  C56  1  0.369000  0.521000  0.520500  1.0  0.0615
  N  N57  1  0.149000  0.609800  0.980800  1.0  -0.4248
  N  N58  1  0.151900  0.666900  0.170800  1.0  -0.4768
  N  N59  1  0.996000  0.756000  0.371500  1.0  -0.4407
  N  N60  1  0.736400  0.160400  0.174200  1.0  -0.4861
  N  N61  1  0.156000  0.030100  0.118300  1.0  -0.4434
  N  N62  1  0.471500  0.116800  0.159600  1.0  -0.382
  N  N63  1  0.598500  0.195700  0.289600  1.0  -0.394
  N  N64  1  0.748400  0.256300  0.472700  1.0  -0.4194
  N  N65  1  0.813900  0.869800  0.492600  1.0  -0.4423
  N  N66  1  0.486300  0.275600  0.460100  1.0  -0.376
  N  N67  1  0.606900  0.088700  0.462500  1.0  -0.4203
  N  N68  1  0.851000  0.109800  0.019200  1.0  -0.4272
  N  N69  1  0.848100  0.166900  0.829200  1.0  -0.4763
  N  N70  1  0.004000  0.256000  0.628500  1.0  -0.4417
  N  N71  1  0.263600  0.660400  0.825800  1.0  -0.4856
  N  N72  1  0.844000  0.530100  0.881700  1.0  -0.4449
  N  N73  1  0.528500  0.616800  0.840400  1.0  -0.3823
  N  N74  1  0.401500  0.695700  0.710400  1.0  -0.3932
  N  N75  1  0.251600  0.756300  0.527300  1.0  -0.4193
  N  N76  1  0.186100  0.369800  0.507400  1.0  -0.441
  N  N77  1  0.513700  0.775600  0.539900  1.0  -0.3754
  N  N78  1  0.393100  0.588700  0.537500  1.0  -0.4208
