# generated using pymatgen
data_CuMo5P2H18C20N4O23
_symmetry_space_group_name_H-M   'P 1'
_cell_length_a   11.16880000
_cell_length_b   11.16880000
_cell_length_c   24.90140000
_cell_angle_alpha   82.73150000
_cell_angle_beta   77.91360000
_cell_angle_gamma   104.54200000
_symmetry_Int_Tables_number   1
_chemical_formula_structural   CuMo5P2H18C20N4O23
_chemical_formula_sum   'Cu2 Mo10 P4 H36 C40 N8 O46'
_cell_volume   2886.97869329
_cell_formula_units_Z   2
loop_
 _symmetry_equiv_pos_site_id
 _symmetry_equiv_pos_as_xyz
  1  'x, y, z'
loop_
 _atom_site_type_symbol
 _atom_site_label
 _atom_site_symmetry_multiplicity
 _atom_site_fract_x
 _atom_site_fract_y
 _atom_site_fract_z
 _atom_site_occupancy
 _atom_site_charge
  Cu  Cu1  1  0.500000  0.500000  0.000000  1.0  0.5861
  Cu  Cu2  1  0.000000  0.500000  0.500000  1.0  0.5861
  Mo  Mo3  1  0.586640  0.577050  0.827690  1.0  2.1812
  Mo  Mo4  1  0.094760  0.662520  0.708960  1.0  2.2242
  Mo  Mo5  1  0.904740  0.414330  0.672310  1.0  2.1829
  Mo  Mo6  1  0.871480  0.803720  0.791040  1.0  2.2244
  Mo  Mo7  1  0.413360  0.422950  0.172310  1.0  2.181
  Mo  Mo8  1  0.905240  0.337480  0.291040  1.0  2.2284
  Mo  Mo9  1  0.095260  0.585670  0.327690  1.0  2.182
  Mo  Mo10  1  0.128520  0.196280  0.208960  1.0  2.228
  Mo  Mo11  1  0.602470  0.352470  0.750000  1.0  2.1194
  Mo  Mo12  1  0.397530  0.647530  0.250000  1.0  2.1155
  P  P13  1  0.783400  0.663190  0.691010  1.0  1.7117
  P  P14  1  0.854200  0.474410  0.808990  1.0  1.7125
  P  P15  1  0.216600  0.336810  0.308990  1.0  1.712
  P  P16  1  0.145800  0.525590  0.191010  1.0  1.7117
  H  H17  1  0.703300  0.711400  0.630500  1.0  0.4384
  H  H18  1  0.431600  0.663100  0.079100  1.0  0.0638
  H  H19  1  0.416500  0.858300  0.080800  1.0  0.0989
  H  H20  1  0.603500  0.957000  0.920500  1.0  0.1035
  H  H21  1  0.619700  0.760000  0.923100  1.0  0.059
  H  H22  1  0.234400  0.388600  0.072800  1.0  0.066
  H  H23  1  0.030400  0.385600  0.074400  1.0  0.1025
  H  H24  1  0.151500  0.593700  0.921400  1.0  0.1159
  H  H25  1  0.356200  0.589000  0.922200  1.0  0.0703
  H  H26  1  0.841900  0.333800  0.869500  1.0  0.4336
  H  H27  1  0.242200  0.510700  0.420900  1.0  0.0656
  H  H28  1  0.439100  0.497300  0.419200  1.0  0.099
  H  H29  1  0.377500  0.524000  0.579500  1.0  0.1039
  H  H30  1  0.183100  0.542800  0.576900  1.0  0.0582
  H  H31  1  0.961400  0.307200  0.427200  1.0  0.0655
  H  H32  1  0.960000  0.104800  0.425600  1.0  0.1052
  H  H33  1  0.015100  0.072900  0.578600  1.0  0.115
  H  H34  1  0.011200  0.278400  0.577800  1.0  0.0691
  H  H35  1  0.296700  0.288600  0.369500  1.0  0.4348
  H  H36  1  0.568400  0.336900  0.920900  1.0  0.0636
  H  H37  1  0.583500  0.141700  0.919200  1.0  0.0994
  H  H38  1  0.396500  0.043000  0.079500  1.0  0.1039
  H  H39  1  0.380300  0.240000  0.076900  1.0  0.0591
  H  H40  1  0.765600  0.611400  0.927200  1.0  0.0652
  H  H41  1  0.969600  0.614400  0.925600  1.0  0.1041
  H  H42  1  0.848500  0.406300  0.078600  1.0  0.1151
  H  H43  1  0.643800  0.411000  0.077800  1.0  0.0705
  H  H44  1  0.158100  0.666200  0.130500  1.0  0.4381
  H  H45  1  0.757800  0.489300  0.579100  1.0  0.0645
  H  H46  1  0.560900  0.502700  0.580800  1.0  0.098
  H  H47  1  0.622500  0.476000  0.420500  1.0  0.1045
  H  H48  1  0.816900  0.457200  0.423100  1.0  0.0584
  H  H49  1  0.038600  0.692800  0.572800  1.0  0.0649
  H  H50  1  0.040000  0.895200  0.574400  1.0  0.1056
  H  H51  1  0.984900  0.927100  0.421400  1.0  0.1154
  H  H52  1  0.988800  0.721600  0.422200  1.0  0.0684
  C  C53  1  0.466400  0.723100  0.046300  1.0  0.1729
  C  C54  1  0.457000  0.840600  0.047400  1.0  -0.173
  C  C55  1  0.505400  0.936400  0.000600  1.0  0.0192
  C  C56  1  0.567100  0.898600  0.953700  1.0  -0.1889
  C  C57  1  0.575400  0.779500  0.955300  1.0  0.1621
  C  C58  1  0.217900  0.430100  0.041600  1.0  0.1685
  C  C59  1  0.095100  0.430500  0.043000  1.0  -0.1749
  C  C60  1  0.063500  0.495000  0.999900  1.0  0.0272
  C  C61  1  0.166100  0.552200  0.953100  1.0  -0.1915
  C  C62  1  0.289700  0.547900  0.953400  1.0  0.1533
  C  C63  1  0.269400  0.512700  0.453700  1.0  0.1744
  C  C64  1  0.388000  0.504400  0.452600  1.0  -0.1733
  C  C65  1  0.437000  0.506000  0.499400  1.0  0.0175
  C  C66  1  0.352300  0.520800  0.546300  1.0  -0.1858
  C  C67  1  0.234800  0.530700  0.544700  1.0  0.1644
  C  C68  1  0.971700  0.259500  0.458400  1.0  0.1672
  C  C69  1  0.973500  0.138100  0.457000  1.0  -0.1751
  C  C70  1  0.994900  0.063400  0.500100  1.0  0.0281
  C  C71  1  0.005300  0.119200  0.546900  1.0  -0.1905
  C  C72  1  0.001300  0.243100  0.546600  1.0  0.1509
  C  C73  1  0.533600  0.276900  0.953700  1.0  0.1747
  C  C74  1  0.543000  0.159400  0.952600  1.0  -0.173
  C  C75  1  0.494600  0.063600  0.999400  1.0  0.0186
  C  C76  1  0.432900  0.101400  0.046300  1.0  -0.1883
  C  C77  1  0.424600  0.220500  0.044700  1.0  0.1633
  C  C78  1  0.782100  0.569900  0.958400  1.0  0.1678
  C  C79  1  0.904900  0.569500  0.957000  1.0  -0.176
  C  C80  1  0.936500  0.505000  0.000100  1.0  0.0283
  C  C81  1  0.833900  0.447800  0.046900  1.0  -0.1902
  C  C82  1  0.710300  0.452100  0.046600  1.0  0.1538
  C  C83  1  0.730600  0.487300  0.546300  1.0  0.1749
  C  C84  1  0.612000  0.495600  0.547400  1.0  -0.1718
  C  C85  1  0.563000  0.494000  0.500600  1.0  0.0174
  C  C86  1  0.647700  0.479200  0.453700  1.0  -0.186
  C  C87  1  0.765200  0.469300  0.455300  1.0  0.1638
  C  C88  1  0.028300  0.740500  0.541600  1.0  0.1669
  C  C89  1  0.026500  0.861900  0.543000  1.0  -0.1769
  C  C90  1  0.005100  0.936600  0.499900  1.0  0.0301
  C  C91  1  0.994700  0.880800  0.453100  1.0  -0.1914
  C  C92  1  0.998700  0.756900  0.453400  1.0  0.1514
  N  N93  1  0.522900  0.688200  0.000900  1.0  -0.3289
  N  N94  1  0.315600  0.486400  0.997200  1.0  -0.3348
  N  N95  1  0.189100  0.523800  0.499100  1.0  -0.3279
  N  N96  1  0.983600  0.312800  0.502800  1.0  -0.3351
  N  N97  1  0.477100  0.311800  0.999100  1.0  -0.3301
  N  N98  1  0.684400  0.513600  0.002800  1.0  -0.3336
  N  N99  1  0.810900  0.476200  0.500900  1.0  -0.3295
  N  N100  1  0.016400  0.687200  0.497200  1.0  -0.3331
  O  O101  1  0.662900  0.575300  0.732800  1.0  -0.8877
  O  O102  1  0.563200  0.405000  0.819800  1.0  -0.6805
  O  O103  1  0.895700  0.605200  0.686100  1.0  -0.8147
  O  O104  1  0.686100  0.753700  0.811400  1.0  -0.6427
  O  O105  1  0.558500  0.550000  0.899700  1.0  -0.7172
  O  O106  1  0.449500  0.602100  0.815800  1.0  -0.5926
  O  O107  1  0.469700  0.354000  0.726500  1.0  -0.5119
  O  O108  1  0.821300  0.789500  0.707600  1.0  -0.8221
  O  O109  1  0.152300  0.758800  0.644900  1.0  -0.6101
  O  O110  1  0.231800  0.670100  0.729700  1.0  -0.5326
  O  O111  1  0.760500  0.677700  0.631200  1.0  -0.6941
  O  O112  1  0.808100  0.395700  0.767200  1.0  -0.894
  O  O113  1  0.724800  0.383000  0.680200  1.0  -0.6795
  O  O114  1  0.791300  0.581800  0.813900  1.0  -0.8157
  O  O115  1  0.065100  0.497500  0.688600  1.0  -0.646
  O  O116  1  0.949700  0.458200  0.600300  1.0  -0.7171
  O  O117  1  0.917900  0.265300  0.684200  1.0  -0.5888
  O  O118  1  0.580500  0.196200  0.773500  1.0  -0.5149
  O  O119  1  0.997100  0.528900  0.792400  1.0  -0.8198
  O  O120  1  0.903700  0.797200  0.855100  1.0  -0.6136
  O  O121  1  0.899800  0.961500  0.770300  1.0  -0.5317
  O  O122  1  0.808900  0.391700  0.868800  1.0  -0.6982
  O  O123  1  0.337100  0.424700  0.267200  1.0  -0.8895
  O  O124  1  0.436800  0.595000  0.180200  1.0  -0.6753
  O  O125  1  0.104300  0.394800  0.313900  1.0  -0.8139
  O  O126  1  0.313900  0.246300  0.188600  1.0  -0.6475
  O  O127  1  0.441500  0.450000  0.100300  1.0  -0.7174
  O  O128  1  0.550500  0.397900  0.184200  1.0  -0.5918
  O  O129  1  0.530300  0.646000  0.273500  1.0  -0.515
  O  O130  1  0.178700  0.210500  0.292400  1.0  -0.8239
  O  O131  1  0.847700  0.241200  0.355100  1.0  -0.6117
  O  O132  1  0.768200  0.329900  0.270300  1.0  -0.5319
  O  O133  1  0.239500  0.322300  0.368800  1.0  -0.6978
  O  O134  1  0.191900  0.604300  0.232800  1.0  -0.8942
  O  O135  1  0.275200  0.617000  0.319800  1.0  -0.6747
  O  O136  1  0.208700  0.418200  0.186100  1.0  -0.8153
  O  O137  1  0.934900  0.502500  0.311400  1.0  -0.6444
  O  O138  1  0.050300  0.541800  0.399700  1.0  -0.7174
  O  O139  1  0.082100  0.734700  0.315800  1.0  -0.5874
  O  O140  1  0.419500  0.803800  0.226500  1.0  -0.5136
  O  O141  1  0.002900  0.471100  0.207600  1.0  -0.8189
  O  O142  1  0.096300  0.202800  0.144900  1.0  -0.6127
  O  O143  1  0.100200  0.038500  0.229700  1.0  -0.5336
  O  O144  1  0.191100  0.608300  0.131200  1.0  -0.6951
  O  O145  1  0.021400  0.771400  0.750000  1.0  -0.7783
  O  O146  1  0.978600  0.228600  0.250000  1.0  -0.7829
