# generated using pymatgen
data_NaFeH12C10(NO4)2
_symmetry_space_group_name_H-M   'P 1'
_cell_length_a   9.00100000
_cell_length_b   11.96600000
_cell_length_c   15.10600000
_cell_angle_alpha   90.00000000
_cell_angle_beta   99.66000000
_cell_angle_gamma   90.00000000
_symmetry_Int_Tables_number   1
_chemical_formula_structural   NaFeH12C10(NO4)2
_chemical_formula_sum   'Na4 Fe4 H48 C40 N8 O32'
_cell_volume   1603.93676651
_cell_formula_units_Z   4
loop_
 _symmetry_equiv_pos_site_id
 _symmetry_equiv_pos_as_xyz
  1  'x, y, z'
loop_
 _atom_site_type_symbol
 _atom_site_label
 _atom_site_symmetry_multiplicity
 _atom_site_fract_x
 _atom_site_fract_y
 _atom_site_fract_z
 _atom_site_occupancy
 _atom_site_charge
  Na  Na1  1  0.757060  0.469180  0.171190  1.0  0.972
  Na  Na2  1  0.257060  0.969180  0.171190  1.0  0.972
  Na  Na3  1  0.757060  0.530820  0.671190  1.0  0.9723
  Na  Na4  1  0.257060  0.030820  0.671190  1.0  0.9723
  Fe  Fe5  1  0.149820  0.415980  0.032430  1.0  0.8452
  Fe  Fe6  1  0.649820  0.915980  0.032430  1.0  0.8452
  Fe  Fe7  1  0.149820  0.584020  0.532430  1.0  0.8461
  Fe  Fe8  1  0.649820  0.084020  0.532430  1.0  0.8461
  H  H9  1  0.991500  0.215900  0.819300  1.0  0.0941
  H  H10  1  0.078500  0.160500  0.907100  1.0  0.0923
  H  H11  1  0.256500  0.228800  0.827100  1.0  0.0835
  H  H12  1  0.180300  0.347400  0.819600  1.0  0.0964
  H  H13  1  0.935400  0.172200  0.003500  1.0  0.1033
  H  H14  1  0.789100  0.224800  0.947800  1.0  0.0925
  H  H15  1  0.467200  0.219200  0.004100  1.0  0.1211
  H  H16  1  0.322400  0.150400  0.966900  1.0  0.0955
  H  H17  1  0.800000  0.409900  0.902100  1.0  0.1244
  H  H18  1  0.853800  0.362500  0.816200  1.0  0.1161
  H  H19  1  0.381300  0.441800  0.879000  1.0  0.1091
  H  H20  1  0.500700  0.348500  0.911400  1.0  0.0989
  H  H21  1  0.491500  0.715900  0.819300  1.0  0.0941
  H  H22  1  0.578500  0.660500  0.907100  1.0  0.0923
  H  H23  1  0.756500  0.728800  0.827100  1.0  0.0835
  H  H24  1  0.680300  0.847400  0.819600  1.0  0.0964
  H  H25  1  0.435400  0.672200  0.003500  1.0  0.1033
  H  H26  1  0.289100  0.724800  0.947800  1.0  0.0925
  H  H27  1  0.967200  0.719200  0.004100  1.0  0.1211
  H  H28  1  0.822400  0.650400  0.966900  1.0  0.0955
  H  H29  1  0.300000  0.909900  0.902100  1.0  0.1244
  H  H30  1  0.353800  0.862500  0.816200  1.0  0.1161
  H  H31  1  0.881300  0.941800  0.879000  1.0  0.1091
  H  H32  1  0.000700  0.848500  0.911400  1.0  0.0989
  H  H33  1  0.991500  0.784100  0.319300  1.0  0.0946
  H  H34  1  0.078500  0.839500  0.407100  1.0  0.0916
  H  H35  1  0.256500  0.771200  0.327100  1.0  0.0842
  H  H36  1  0.180300  0.652600  0.319600  1.0  0.0958
  H  H37  1  0.935400  0.827800  0.503500  1.0  0.103
  H  H38  1  0.789100  0.775200  0.447800  1.0  0.0928
  H  H39  1  0.467200  0.780800  0.504100  1.0  0.1209
  H  H40  1  0.322400  0.849600  0.466900  1.0  0.0944
  H  H41  1  0.800000  0.590100  0.402100  1.0  0.1242
  H  H42  1  0.853800  0.637500  0.316200  1.0  0.1155
  H  H43  1  0.381300  0.558200  0.379000  1.0  0.1083
  H  H44  1  0.500700  0.651500  0.411400  1.0  0.0989
  H  H45  1  0.491500  0.284100  0.319300  1.0  0.0946
  H  H46  1  0.578500  0.339500  0.407100  1.0  0.0916
  H  H47  1  0.756500  0.271200  0.327100  1.0  0.0842
  H  H48  1  0.680300  0.152600  0.319600  1.0  0.0958
  H  H49  1  0.435400  0.327800  0.503500  1.0  0.103
  H  H50  1  0.289100  0.275200  0.447800  1.0  0.0928
  H  H51  1  0.967200  0.280800  0.504100  1.0  0.1209
  H  H52  1  0.822400  0.349600  0.466900  1.0  0.0944
  H  H53  1  0.300000  0.090100  0.402100  1.0  0.1242
  H  H54  1  0.353800  0.137500  0.316200  1.0  0.1155
  H  H55  1  0.881300  0.058200  0.379000  1.0  0.1083
  H  H56  1  0.000700  0.151500  0.411400  1.0  0.0989
  C  C57  1  0.056900  0.230900  0.875900  1.0  -0.0316
  C  C58  1  0.202300  0.282300  0.857900  1.0  -0.0165
  C  C59  1  0.885400  0.242100  0.984500  1.0  -0.1752
  C  C60  1  0.860000  0.308300  0.066400  1.0  0.7349
  C  C61  1  0.318800  0.212000  0.093200  1.0  0.7389
  C  C62  1  0.358300  0.218100  0.998900  1.0  -0.1828
  C  C63  1  0.888300  0.393000  0.875600  1.0  -0.1289
  C  C64  1  0.973300  0.500600  0.866300  1.0  0.7337
  C  C65  1  0.418500  0.391700  0.928200  1.0  -0.19
  C  C66  1  0.475900  0.459200  0.011500  1.0  0.7081
  C  C67  1  0.556900  0.730900  0.875900  1.0  -0.0316
  C  C68  1  0.702300  0.782300  0.857900  1.0  -0.0165
  C  C69  1  0.385400  0.742100  0.984500  1.0  -0.1752
  C  C70  1  0.360000  0.808300  0.066400  1.0  0.7349
  C  C71  1  0.818800  0.712000  0.093200  1.0  0.7389
  C  C72  1  0.858300  0.718100  0.998900  1.0  -0.1828
  C  C73  1  0.388300  0.893000  0.875600  1.0  -0.1289
  C  C74  1  0.473300  0.000600  0.866300  1.0  0.7337
  C  C75  1  0.918500  0.891700  0.928200  1.0  -0.19
  C  C76  1  0.975900  0.959200  0.011500  1.0  0.7081
  C  C77  1  0.056900  0.769100  0.375900  1.0  -0.0312
  C  C78  1  0.202300  0.717700  0.357900  1.0  -0.0168
  C  C79  1  0.885400  0.757900  0.484500  1.0  -0.1758
  C  C80  1  0.860000  0.691700  0.566400  1.0  0.7353
  C  C81  1  0.318800  0.788000  0.593200  1.0  0.7389
  C  C82  1  0.358300  0.781900  0.498900  1.0  -0.1837
  C  C83  1  0.888300  0.607000  0.375600  1.0  -0.1299
  C  C84  1  0.973300  0.499400  0.366300  1.0  0.733
  C  C85  1  0.418500  0.608300  0.428200  1.0  -0.1904
  C  C86  1  0.475900  0.540800  0.511500  1.0  0.709
  C  C87  1  0.556900  0.269100  0.375900  1.0  -0.0312
  C  C88  1  0.702300  0.217700  0.357900  1.0  -0.0168
  C  C89  1  0.385400  0.257900  0.484500  1.0  -0.1758
  C  C90  1  0.360000  0.191700  0.566400  1.0  0.7353
  C  C91  1  0.818800  0.288000  0.593200  1.0  0.7389
  C  C92  1  0.858300  0.281900  0.498900  1.0  -0.1837
  C  C93  1  0.388300  0.107000  0.375600  1.0  -0.1299
  C  C94  1  0.473300  0.999400  0.366300  1.0  0.733
  C  C95  1  0.918500  0.108300  0.428200  1.0  -0.1904
  C  C96  1  0.975900  0.040800  0.511500  1.0  0.709
  N  N97  1  0.978700  0.306800  0.931050  1.0  -0.1468
  N  N98  1  0.296400  0.315500  0.943730  1.0  -0.1539
  N  N99  1  0.478700  0.806800  0.931050  1.0  -0.1468
  N  N100  1  0.796400  0.815500  0.943730  1.0  -0.1539
  N  N101  1  0.978700  0.693200  0.431050  1.0  -0.1465
  N  N102  1  0.296400  0.684500  0.443730  1.0  -0.1542
  N  N103  1  0.478700  0.193200  0.431050  1.0  -0.1465
  N  N104  1  0.796400  0.184500  0.443730  1.0  -0.1542
  O  O105  1  0.761900  0.275600  0.108800  1.0  -0.6044
  O  O106  1  0.941300  0.394300  0.086250  1.0  -0.6767
  O  O107  1  0.218000  0.279300  0.113650  1.0  -0.6058
  O  O108  1  0.089100  0.523400  0.924950  1.0  -0.5794
  O  O109  1  0.379600  0.476500  0.063900  1.0  -0.6324
  O  O110  1  0.923000  0.563700  0.803830  1.0  -0.6059
  O  O111  1  0.381100  0.141000  0.145280  1.0  -0.6457
  O  O112  1  0.604800  0.496300  0.023360  1.0  -0.5825
  O  O113  1  0.261900  0.775600  0.108800  1.0  -0.6044
  O  O114  1  0.441300  0.894300  0.086250  1.0  -0.6767
  O  O115  1  0.718000  0.779300  0.113650  1.0  -0.6058
  O  O116  1  0.589100  0.023400  0.924950  1.0  -0.5794
  O  O117  1  0.879600  0.976500  0.063900  1.0  -0.6324
  O  O118  1  0.423000  0.063700  0.803830  1.0  -0.6059
  O  O119  1  0.881100  0.641000  0.145280  1.0  -0.6457
  O  O120  1  0.104800  0.996300  0.023360  1.0  -0.5825
  O  O121  1  0.761900  0.724400  0.608800  1.0  -0.6047
  O  O122  1  0.941300  0.605700  0.586250  1.0  -0.6758
  O  O123  1  0.218000  0.720700  0.613650  1.0  -0.6051
  O  O124  1  0.089100  0.476600  0.424950  1.0  -0.58
  O  O125  1  0.379600  0.523500  0.563900  1.0  -0.6314
  O  O126  1  0.923000  0.436300  0.303830  1.0  -0.6059
  O  O127  1  0.381100  0.859000  0.645280  1.0  -0.6468
  O  O128  1  0.604800  0.503700  0.523360  1.0  -0.5821
  O  O129  1  0.261900  0.224400  0.608800  1.0  -0.6047
  O  O130  1  0.441300  0.105700  0.586250  1.0  -0.6758
  O  O131  1  0.718000  0.220700  0.613650  1.0  -0.6051
  O  O132  1  0.589100  0.976600  0.424950  1.0  -0.58
  O  O133  1  0.879600  0.023500  0.563900  1.0  -0.6314
  O  O134  1  0.423000  0.936300  0.303830  1.0  -0.6059
  O  O135  1  0.881100  0.359000  0.645280  1.0  -0.6468
  O  O136  1  0.104800  0.003700  0.523360  1.0  -0.5821
