# generated using pymatgen
data_NaRuN18
_symmetry_space_group_name_H-M   'P 1'
_cell_length_a   12.85630000
_cell_length_b   12.85630000
_cell_length_c   12.85630000
_cell_angle_alpha   90.00000000
_cell_angle_beta   90.00000000
_cell_angle_gamma   90.00000000
_symmetry_Int_Tables_number   1
_chemical_formula_structural   NaRuN18
_chemical_formula_sum   'Na4 Ru4 N72'
_cell_volume   2124.94647055
_cell_formula_units_Z   4
loop_
 _symmetry_equiv_pos_site_id
 _symmetry_equiv_pos_as_xyz
  1  'x, y, z'
loop_
 _atom_site_type_symbol
 _atom_site_label
 _atom_site_symmetry_multiplicity
 _atom_site_fract_x
 _atom_site_fract_y
 _atom_site_fract_z
 _atom_site_occupancy
 _atom_site_charge
  Na  Na1  1  0.000000  0.500000  0.000000  1.0  0.9703
  Na  Na2  1  0.500000  0.500000  0.500000  1.0  0.9703
  Na  Na3  1  0.000000  0.000000  0.500000  1.0  0.9703
  Na  Na4  1  0.500000  0.000000  0.000000  1.0  0.9703
  Ru  Ru5  1  0.500000  0.500000  0.000000  1.0  0.3368
  Ru  Ru6  1  0.000000  0.500000  0.500000  1.0  0.3368
  Ru  Ru7  1  0.500000  0.000000  0.500000  1.0  0.3368
  Ru  Ru8  1  0.000000  0.000000  0.000000  1.0  0.3368
  N  N9  1  0.724200  0.481200  0.033500  1.0  0.4549
  N  N10  1  0.641900  0.439200  0.044600  1.0  -0.2827
  N  N11  1  0.806900  0.515900  0.027000  1.0  -0.3918
  N  N12  1  0.775800  0.518800  0.533500  1.0  0.4566
  N  N13  1  0.858100  0.560800  0.544600  1.0  -0.2831
  N  N14  1  0.693100  0.484100  0.527000  1.0  -0.3911
  N  N15  1  0.275800  0.981200  0.466500  1.0  0.4563
  N  N16  1  0.358100  0.939200  0.455400  1.0  -0.2821
  N  N17  1  0.193100  0.015900  0.473000  1.0  -0.3924
  N  N18  1  0.224200  0.018800  0.966500  1.0  0.4553
  N  N19  1  0.141900  0.060800  0.955400  1.0  -0.2842
  N  N20  1  0.306900  0.984100  0.973000  1.0  -0.3914
  N  N21  1  0.033500  0.724200  0.481200  1.0  0.4547
  N  N22  1  0.044600  0.641900  0.439200  1.0  -0.2789
  N  N23  1  0.027000  0.806900  0.515900  1.0  -0.3926
  N  N24  1  0.533500  0.775800  0.518800  1.0  0.4546
  N  N25  1  0.544600  0.858100  0.560800  1.0  -0.2798
  N  N26  1  0.527000  0.693100  0.484100  1.0  -0.3933
  N  N27  1  0.466500  0.275800  0.981200  1.0  0.4568
  N  N28  1  0.455400  0.358100  0.939200  1.0  -0.2794
  N  N29  1  0.473000  0.193100  0.015900  1.0  -0.3929
  N  N30  1  0.966500  0.224200  0.018800  1.0  0.4571
  N  N31  1  0.955400  0.141900  0.060800  1.0  -0.2828
  N  N32  1  0.973000  0.306900  0.984100  1.0  -0.3923
  N  N33  1  0.481200  0.033500  0.724200  1.0  0.4576
  N  N34  1  0.439200  0.044600  0.641900  1.0  -0.2783
  N  N35  1  0.515900  0.027000  0.806900  1.0  -0.392
  N  N36  1  0.518800  0.533500  0.775800  1.0  0.4562
  N  N37  1  0.560800  0.544600  0.858100  1.0  -0.2796
  N  N38  1  0.484100  0.527000  0.693100  1.0  -0.3932
  N  N39  1  0.981200  0.466500  0.275800  1.0  0.4568
  N  N40  1  0.939200  0.455400  0.358100  1.0  -0.2798
  N  N41  1  0.015900  0.473000  0.193100  1.0  -0.3928
  N  N42  1  0.018800  0.966500  0.224200  1.0  0.4565
  N  N43  1  0.060800  0.955400  0.141900  1.0  -0.282
  N  N44  1  0.984100  0.973000  0.306900  1.0  -0.3919
  N  N45  1  0.275800  0.518800  0.966500  1.0  0.4567
  N  N46  1  0.358100  0.560800  0.955400  1.0  -0.2835
  N  N47  1  0.193100  0.484100  0.973000  1.0  -0.3916
  N  N48  1  0.224200  0.481200  0.466500  1.0  0.4549
  N  N49  1  0.141900  0.439200  0.455400  1.0  -0.2864
  N  N50  1  0.306900  0.515900  0.473000  1.0  -0.392
  N  N51  1  0.724200  0.018800  0.533500  1.0  0.4554
  N  N52  1  0.641900  0.060800  0.544600  1.0  -0.285
  N  N53  1  0.806900  0.984100  0.527000  1.0  -0.3911
  N  N54  1  0.775800  0.981200  0.033500  1.0  0.4562
  N  N55  1  0.858100  0.939200  0.044600  1.0  -0.2823
  N  N56  1  0.693100  0.015900  0.027000  1.0  -0.392
  N  N57  1  0.966500  0.275800  0.518800  1.0  0.457
  N  N58  1  0.955400  0.358100  0.560800  1.0  -0.2794
  N  N59  1  0.973000  0.193100  0.484100  1.0  -0.3936
  N  N60  1  0.466500  0.224200  0.481200  1.0  0.4571
  N  N61  1  0.455400  0.141900  0.439200  1.0  -0.2825
  N  N62  1  0.473000  0.306900  0.515900  1.0  -0.3929
  N  N63  1  0.533500  0.724200  0.018800  1.0  0.4548
  N  N64  1  0.544600  0.641900  0.060800  1.0  -0.2836
  N  N65  1  0.527000  0.806900  0.984100  1.0  -0.392
  N  N66  1  0.033500  0.775800  0.981200  1.0  0.4544
  N  N67  1  0.044600  0.858100  0.939200  1.0  -0.2793
  N  N68  1  0.027000  0.693100  0.015900  1.0  -0.3926
  N  N69  1  0.518800  0.966500  0.275800  1.0  0.4559
  N  N70  1  0.560800  0.955400  0.358100  1.0  -0.2828
  N  N71  1  0.484100  0.973000  0.193100  1.0  -0.3929
  N  N72  1  0.481200  0.466500  0.224200  1.0  0.4575
  N  N73  1  0.439200  0.455400  0.141900  1.0  -0.2813
  N  N74  1  0.515900  0.473000  0.306900  1.0  -0.3921
  N  N75  1  0.018800  0.533500  0.724200  1.0  0.4567
  N  N76  1  0.060800  0.544600  0.641900  1.0  -0.2816
  N  N77  1  0.984100  0.527000  0.806900  1.0  -0.3917
  N  N78  1  0.981200  0.033500  0.775800  1.0  0.4571
  N  N79  1  0.939200  0.044600  0.858100  1.0  -0.2796
  N  N80  1  0.015900  0.027000  0.693100  1.0  -0.3931
