# generated using pymatgen
data_Al2Co(PO4)3
_symmetry_space_group_name_H-M   'P 1'
_cell_length_a   14.71800000
_cell_length_b   13.06300000
_cell_length_c   15.22900000
_cell_angle_alpha   90.00000000
_cell_angle_beta   110.92000000
_cell_angle_gamma   90.00000000
_symmetry_Int_Tables_number   1
_chemical_formula_structural   Al2Co(PO4)3
_chemical_formula_sum   'Al16 Co8 P24 O96'
_cell_volume   2734.93579516
_cell_formula_units_Z   8
loop_
 _symmetry_equiv_pos_site_id
 _symmetry_equiv_pos_as_xyz
  1  'x, y, z'
loop_
 _atom_site_type_symbol
 _atom_site_label
 _atom_site_symmetry_multiplicity
 _atom_site_fract_x
 _atom_site_fract_y
 _atom_site_fract_z
 _atom_site_occupancy
 _atom_site_charge
  Al  Al1  1  0.375260  0.190880  0.123660  1.0  1.9903
  Al  Al2  1  0.583410  0.894160  0.163130  1.0  2.0642
  Al  Al3  1  0.250800  0.872150  0.918730  1.0  1.943
  Al  Al4  1  0.875260  0.690880  0.123660  1.0  1.9903
  Al  Al5  1  0.750800  0.372150  0.918730  1.0  1.943
  Al  Al6  1  0.624740  0.190880  0.376340  1.0  1.9892
  Al  Al7  1  0.416590  0.894160  0.336870  1.0  2.0648
  Al  Al8  1  0.749200  0.872150  0.581270  1.0  1.943
  Al  Al9  1  0.124740  0.690880  0.376340  1.0  1.9892
  Al  Al10  1  0.249200  0.372150  0.581270  1.0  1.943
  Al  Al11  1  0.624740  0.809120  0.876340  1.0  1.9892
  Al  Al12  1  0.416590  0.105840  0.836870  1.0  2.0647
  Al  Al13  1  0.124740  0.309120  0.876340  1.0  1.9892
  Al  Al14  1  0.375260  0.809120  0.623660  1.0  1.9905
  Al  Al15  1  0.583410  0.105840  0.663130  1.0  2.0642
  Al  Al16  1  0.875260  0.309120  0.623660  1.0  1.9905
  Co  Co17  1  0.083410  0.394160  0.163130  1.0  0.9843
  Co  Co18  1  0.249200  0.627850  0.081270  1.0  1.0525
  Co  Co19  1  0.749200  0.127850  0.081270  1.0  1.0525
  Co  Co20  1  0.916590  0.394160  0.336870  1.0  0.9849
  Co  Co21  1  0.750800  0.627850  0.418730  1.0  1.0541
  Co  Co22  1  0.250800  0.127850  0.418730  1.0  1.0541
  Co  Co23  1  0.916590  0.605840  0.836870  1.0  0.9847
  Co  Co24  1  0.083410  0.605840  0.663130  1.0  0.9842
  P  P25  1  0.253600  0.112020  0.921220  1.0  2.1227
  P  P26  1  0.591300  0.133190  0.170510  1.0  2.107
  P  P27  1  0.376180  0.814180  0.128160  1.0  1.9901
  P  P28  1  0.753600  0.612020  0.921220  1.0  2.1227
  P  P29  1  0.091300  0.633190  0.170510  1.0  2.1098
  P  P30  1  0.876180  0.314180  0.128160  1.0  1.9901
  P  P31  1  0.746400  0.112020  0.578780  1.0  2.1274
  P  P32  1  0.408700  0.133190  0.329490  1.0  2.1121
  P  P33  1  0.623820  0.814180  0.371840  1.0  1.99
  P  P34  1  0.246400  0.612020  0.578780  1.0  2.1274
  P  P35  1  0.908700  0.633190  0.329490  1.0  2.1121
  P  P36  1  0.123820  0.314180  0.371840  1.0  1.9902
  P  P37  1  0.746400  0.887980  0.078780  1.0  2.1271
  P  P38  1  0.408700  0.866810  0.829490  1.0  2.1124
  P  P39  1  0.623820  0.185820  0.871840  1.0  1.9915
  P  P40  1  0.246400  0.387980  0.078780  1.0  2.1271
  P  P41  1  0.908700  0.366810  0.829490  1.0  2.1124
  P  P42  1  0.123820  0.685820  0.871840  1.0  1.9903
  P  P43  1  0.253600  0.887980  0.421220  1.0  2.1225
  P  P44  1  0.591300  0.866810  0.670510  1.0  2.1145
  P  P45  1  0.376180  0.185820  0.628160  1.0  1.9904
  P  P46  1  0.753600  0.387980  0.421220  1.0  2.1225
  P  P47  1  0.091300  0.366810  0.670510  1.0  2.1145
  P  P48  1  0.876180  0.685820  0.628160  1.0  1.9901
  O  O49  1  0.562900  0.025500  0.136800  1.0  -1.0182
  O  O50  1  0.221200  0.006200  0.888700  1.0  -0.8792
  O  O51  1  0.501100  0.200900  0.140400  1.0  -0.9564
  O  O52  1  0.292500  0.857100  0.046600  1.0  -0.8982
  O  O53  1  0.660000  0.176000  0.127000  1.0  -0.855
  O  O54  1  0.326800  0.151600  0.879800  1.0  -1.009
  O  O55  1  0.300400  0.113900  0.027600  1.0  -0.9834
  O  O56  1  0.473600  0.827300  0.113800  1.0  -0.9508
  O  O57  1  0.362100  0.699400  0.136600  1.0  -0.8487
  O  O58  1  0.640700  0.131000  0.277000  1.0  -0.919
  O  O59  1  0.376500  0.870800  0.214800  1.0  -0.9914
  O  O60  1  0.165000  0.179400  0.890800  1.0  -0.9531
  O  O61  1  0.062900  0.525500  0.136800  1.0  -0.9969
  O  O62  1  0.721200  0.506200  0.888700  1.0  -0.8792
  O  O63  1  0.001100  0.700900  0.140400  1.0  -0.9564
  O  O64  1  0.792500  0.357100  0.046600  1.0  -0.8982
  O  O65  1  0.160000  0.676000  0.127000  1.0  -0.855
  O  O66  1  0.826800  0.651600  0.879800  1.0  -0.9897
  O  O67  1  0.800400  0.613900  0.027600  1.0  -0.9834
  O  O68  1  0.973600  0.327300  0.113800  1.0  -0.9537
  O  O69  1  0.862100  0.199400  0.136600  1.0  -0.8487
  O  O70  1  0.140700  0.631000  0.277000  1.0  -0.919
  O  O71  1  0.876500  0.370800  0.214800  1.0  -0.9721
  O  O72  1  0.665000  0.679400  0.890800  1.0  -0.9531
  O  O73  1  0.437100  0.025500  0.363200  1.0  -1.0175
  O  O74  1  0.778800  0.006200  0.611300  1.0  -0.878
  O  O75  1  0.498900  0.200900  0.359600  1.0  -0.9579
  O  O76  1  0.707500  0.857100  0.453400  1.0  -0.8976
  O  O77  1  0.340000  0.176000  0.373000  1.0  -0.8568
  O  O78  1  0.673200  0.151600  0.620200  1.0  -1.0088
  O  O79  1  0.699600  0.113900  0.472400  1.0  -0.9811
  O  O80  1  0.526400  0.827300  0.386200  1.0  -0.9535
  O  O81  1  0.637900  0.699400  0.363400  1.0  -0.8483
  O  O82  1  0.359300  0.131000  0.223000  1.0  -0.9185
  O  O83  1  0.623500  0.870800  0.285200  1.0  -0.9894
  O  O84  1  0.835000  0.179400  0.609200  1.0  -0.9538
  O  O85  1  0.937100  0.525500  0.363200  1.0  -0.9962
  O  O86  1  0.278800  0.506200  0.611300  1.0  -0.878
  O  O87  1  0.998900  0.700900  0.359600  1.0  -0.9579
  O  O88  1  0.207500  0.357100  0.453400  1.0  -0.8976
  O  O89  1  0.840000  0.676000  0.373000  1.0  -0.8568
  O  O90  1  0.173200  0.651600  0.620200  1.0  -0.9896
  O  O91  1  0.199600  0.613900  0.472400  1.0  -0.9811
  O  O92  1  0.026400  0.327300  0.386200  1.0  -0.9567
  O  O93  1  0.137900  0.199400  0.363400  1.0  -0.8483
  O  O94  1  0.859300  0.631000  0.223000  1.0  -0.9185
  O  O95  1  0.123500  0.370800  0.285200  1.0  -0.9703
  O  O96  1  0.335000  0.679400  0.609200  1.0  -0.9538
  O  O97  1  0.437100  0.974500  0.863200  1.0  -1.0174
  O  O98  1  0.778800  0.993800  0.111300  1.0  -0.8667
  O  O99  1  0.498900  0.799100  0.859600  1.0  -0.9531
  O  O100  1  0.707500  0.142900  0.953400  1.0  -0.8773
  O  O101  1  0.340000  0.824000  0.873000  1.0  -0.8833
  O  O102  1  0.673200  0.848400  0.120200  1.0  -1.0088
  O  O103  1  0.699600  0.886100  0.972400  1.0  -0.9797
  O  O104  1  0.526400  0.172700  0.886200  1.0  -0.953
  O  O105  1  0.637900  0.300600  0.863400  1.0  -0.8739
  O  O106  1  0.359300  0.869000  0.723000  1.0  -0.9182
  O  O107  1  0.623500  0.129200  0.785200  1.0  -0.9884
  O  O108  1  0.835000  0.820600  0.109200  1.0  -0.954
  O  O109  1  0.937100  0.474500  0.863200  1.0  -0.9961
  O  O110  1  0.278800  0.493800  0.111300  1.0  -0.8667
  O  O111  1  0.998900  0.299100  0.859600  1.0  -0.9531
  O  O112  1  0.207500  0.642900  0.953400  1.0  -0.8773
  O  O113  1  0.840000  0.324000  0.873000  1.0  -0.8833
  O  O114  1  0.173200  0.348400  0.120200  1.0  -0.9895
  O  O115  1  0.199600  0.386100  0.972400  1.0  -0.9797
  O  O116  1  0.026400  0.672700  0.886200  1.0  -0.9563
  O  O117  1  0.137900  0.800600  0.863400  1.0  -0.8739
  O  O118  1  0.859300  0.369000  0.723000  1.0  -0.9182
  O  O119  1  0.123500  0.629200  0.785200  1.0  -0.9695
  O  O120  1  0.335000  0.320600  0.109200  1.0  -0.954
  O  O121  1  0.562900  0.974500  0.636800  1.0  -1.0177
  O  O122  1  0.221200  0.993800  0.388700  1.0  -0.8669
  O  O123  1  0.501100  0.799100  0.640400  1.0  -0.956
  O  O124  1  0.292500  0.142900  0.546600  1.0  -0.8775
  O  O125  1  0.660000  0.824000  0.627000  1.0  -0.8823
  O  O126  1  0.326800  0.848400  0.379800  1.0  -1.0089
  O  O127  1  0.300400  0.886100  0.527600  1.0  -0.9818
  O  O128  1  0.473600  0.172700  0.613800  1.0  -0.9503
  O  O129  1  0.362100  0.300600  0.636600  1.0  -0.8732
  O  O130  1  0.640700  0.869000  0.777000  1.0  -0.9191
  O  O131  1  0.376500  0.129200  0.714800  1.0  -0.9903
  O  O132  1  0.165000  0.820600  0.390800  1.0  -0.9504
  O  O133  1  0.062900  0.474500  0.636800  1.0  -0.9965
  O  O134  1  0.721200  0.493800  0.388700  1.0  -0.8669
  O  O135  1  0.001100  0.299100  0.640400  1.0  -0.956
  O  O136  1  0.792500  0.642900  0.546600  1.0  -0.8775
  O  O137  1  0.160000  0.324000  0.627000  1.0  -0.8823
  O  O138  1  0.826800  0.348400  0.379800  1.0  -0.9895
  O  O139  1  0.800400  0.386100  0.527600  1.0  -0.9818
  O  O140  1  0.973600  0.672700  0.613800  1.0  -0.9533
  O  O141  1  0.862100  0.800600  0.636600  1.0  -0.8732
  O  O142  1  0.140700  0.369000  0.777000  1.0  -0.9191
  O  O143  1  0.876500  0.629200  0.714800  1.0  -0.971
  O  O144  1  0.665000  0.320600  0.390800  1.0  -0.9504
