# generated using pymatgen
data_AlPO4
_symmetry_space_group_name_H-M   'P 1'
_cell_length_a   14.71000000
_cell_length_b   13.07400000
_cell_length_c   15.26100000
_cell_angle_alpha   90.00000000
_cell_angle_beta   111.04000000
_cell_angle_gamma   90.00000000
_symmetry_Int_Tables_number   1
_chemical_formula_structural   AlPO4
_chemical_formula_sum   'Al24 P24 O96'
_cell_volume   2739.29860534
_cell_formula_units_Z   24
loop_
 _symmetry_equiv_pos_site_id
 _symmetry_equiv_pos_as_xyz
  1  'x, y, z'
loop_
 _atom_site_type_symbol
 _atom_site_label
 _atom_site_symmetry_multiplicity
 _atom_site_fract_x
 _atom_site_fract_y
 _atom_site_fract_z
 _atom_site_occupancy
 _atom_site_charge
  Al  Al1  1  0.250260  0.629050  0.581980  1.0  1.8758
  Al  Al2  1  0.083570  0.395270  0.663270  1.0  2.0045
  Al  Al3  1  0.875620  0.690700  0.623200  1.0  1.9464
  Al  Al4  1  0.750260  0.129050  0.581980  1.0  1.8758
  Al  Al5  1  0.583570  0.895270  0.663270  1.0  2.0045
  Al  Al6  1  0.375620  0.190700  0.623200  1.0  1.9464
  Al  Al7  1  0.749740  0.629050  0.918020  1.0  1.8763
  Al  Al8  1  0.916430  0.395270  0.836730  1.0  2.0051
  Al  Al9  1  0.124380  0.690700  0.876800  1.0  1.945
  Al  Al10  1  0.249740  0.129050  0.918020  1.0  1.8763
  Al  Al11  1  0.416430  0.895270  0.836730  1.0  2.0051
  Al  Al12  1  0.624380  0.190700  0.876800  1.0  1.945
  Al  Al13  1  0.749740  0.370950  0.418020  1.0  1.8764
  Al  Al14  1  0.916430  0.604730  0.336730  1.0  2.005
  Al  Al15  1  0.124380  0.309300  0.376800  1.0  1.9452
  Al  Al16  1  0.249740  0.870950  0.418020  1.0  1.8764
  Al  Al17  1  0.416430  0.104730  0.336730  1.0  2.005
  Al  Al18  1  0.624380  0.809300  0.376800  1.0  1.9452
  Al  Al19  1  0.250260  0.370950  0.081980  1.0  1.8759
  Al  Al20  1  0.083570  0.604730  0.163270  1.0  2.0044
  Al  Al21  1  0.875620  0.309300  0.123200  1.0  1.9463
  Al  Al22  1  0.750260  0.870950  0.081980  1.0  1.8759
  Al  Al23  1  0.583570  0.104730  0.163270  1.0  2.0044
  Al  Al24  1  0.375620  0.809300  0.123200  1.0  1.9463
  P  P25  1  0.092020  0.634580  0.670580  1.0  2.0433
  P  P26  1  0.245830  0.388310  0.578980  1.0  2.0863
  P  P27  1  0.122780  0.685080  0.371940  1.0  1.9332
  P  P28  1  0.592020  0.134580  0.670580  1.0  2.0433
  P  P29  1  0.745830  0.888310  0.578980  1.0  2.0863
  P  P30  1  0.622780  0.185080  0.371940  1.0  1.9312
  P  P31  1  0.907980  0.634580  0.829420  1.0  2.0459
  P  P32  1  0.754170  0.388310  0.921020  1.0  2.0845
  P  P33  1  0.877220  0.685080  0.128060  1.0  1.9277
  P  P34  1  0.407980  0.134580  0.829420  1.0  2.0459
  P  P35  1  0.254170  0.888310  0.921020  1.0  2.0845
  P  P36  1  0.377220  0.185080  0.128060  1.0  1.9277
  P  P37  1  0.907980  0.365420  0.329420  1.0  2.0428
  P  P38  1  0.754170  0.611690  0.421020  1.0  2.0844
  P  P39  1  0.877220  0.314920  0.628060  1.0  1.9371
  P  P40  1  0.407980  0.865420  0.329420  1.0  2.0428
  P  P41  1  0.254170  0.111690  0.421020  1.0  2.0844
  P  P42  1  0.377220  0.814920  0.628060  1.0  1.937
  P  P43  1  0.092020  0.365420  0.170580  1.0  2.0466
  P  P44  1  0.245830  0.611690  0.078980  1.0  2.0864
  P  P45  1  0.122780  0.314920  0.871940  1.0  1.9362
  P  P46  1  0.592020  0.865420  0.170580  1.0  2.0466
  P  P47  1  0.745830  0.111690  0.078980  1.0  2.0864
  P  P48  1  0.622780  0.814920  0.871940  1.0  1.9353
  O  O49  1  0.063700  0.526600  0.635700  1.0  -1.0654
  O  O50  1  0.279500  0.494400  0.612700  1.0  -0.915
  O  O51  1  0.172900  0.348300  0.620900  1.0  -1.0507
  O  O52  1  0.161500  0.679300  0.629300  1.0  -0.9059
  O  O53  1  0.001300  0.702400  0.640600  1.0  -1.0033
  O  O54  1  0.208500  0.643500  0.454200  1.0  -1.0219
  O  O55  1  0.121200  0.626700  0.285600  1.0  -1.0335
  O  O56  1  0.335100  0.319700  0.608900  1.0  -1.0125
  O  O57  1  0.197800  0.387800  0.472600  1.0  -1.0368
  O  O58  1  0.135900  0.799700  0.362400  1.0  -0.8571
  O  O59  1  0.140100  0.631600  0.777000  1.0  -0.9935
  O  O60  1  0.027600  0.670500  0.388100  1.0  -0.996
  O  O61  1  0.563700  0.026600  0.635700  1.0  -1.0654
  O  O62  1  0.779500  0.994400  0.612700  1.0  -0.915
  O  O63  1  0.672900  0.848300  0.620900  1.0  -1.0507
  O  O64  1  0.661500  0.179300  0.629300  1.0  -0.9059
  O  O65  1  0.501300  0.202400  0.640600  1.0  -1.0031
  O  O66  1  0.708500  0.143500  0.454200  1.0  -1.0219
  O  O67  1  0.621200  0.126700  0.285600  1.0  -1.0335
  O  O68  1  0.835100  0.819700  0.608900  1.0  -1.0117
  O  O69  1  0.697800  0.887800  0.472600  1.0  -1.0371
  O  O70  1  0.635900  0.299700  0.362400  1.0  -0.8571
  O  O71  1  0.640100  0.131600  0.777000  1.0  -0.9935
  O  O72  1  0.527600  0.170500  0.388100  1.0  -0.996
  O  O73  1  0.936300  0.526600  0.864300  1.0  -1.0645
  O  O74  1  0.720500  0.494400  0.887300  1.0  -0.9165
  O  O75  1  0.827100  0.348300  0.879100  1.0  -1.0509
  O  O76  1  0.838500  0.679300  0.870700  1.0  -0.9083
  O  O77  1  0.998700  0.702400  0.859400  1.0  -1.0024
  O  O78  1  0.791500  0.643500  0.045800  1.0  -1.022
  O  O79  1  0.878800  0.626700  0.214400  1.0  -1.0357
  O  O80  1  0.664900  0.319700  0.891100  1.0  -1.0118
  O  O81  1  0.802200  0.387800  0.027400  1.0  -1.0385
  O  O82  1  0.864100  0.799700  0.137600  1.0  -0.8575
  O  O83  1  0.859900  0.631600  0.723000  1.0  -0.9938
  O  O84  1  0.972400  0.670500  0.111900  1.0  -0.9927
  O  O85  1  0.436300  0.026600  0.864300  1.0  -1.0645
  O  O86  1  0.220500  0.994400  0.887300  1.0  -0.9165
  O  O87  1  0.327100  0.848300  0.879100  1.0  -1.0509
  O  O88  1  0.338500  0.179300  0.870700  1.0  -0.9083
  O  O89  1  0.498700  0.202400  0.859400  1.0  -1.0021
  O  O90  1  0.291500  0.143500  0.045800  1.0  -1.022
  O  O91  1  0.378800  0.126700  0.214400  1.0  -1.0357
  O  O92  1  0.164900  0.819700  0.891100  1.0  -1.0108
  O  O93  1  0.302200  0.887800  0.027400  1.0  -1.0387
  O  O94  1  0.364100  0.299700  0.137600  1.0  -0.8575
  O  O95  1  0.359900  0.131600  0.723000  1.0  -0.9938
  O  O96  1  0.472400  0.170500  0.111900  1.0  -0.9927
  O  O97  1  0.936300  0.473400  0.364300  1.0  -1.0649
  O  O98  1  0.720500  0.505600  0.387300  1.0  -0.917
  O  O99  1  0.827100  0.651700  0.379100  1.0  -1.0521
  O  O100  1  0.838500  0.320700  0.370700  1.0  -0.9058
  O  O101  1  0.998700  0.297600  0.359400  1.0  -0.9995
  O  O102  1  0.791500  0.356500  0.545800  1.0  -1.0222
  O  O103  1  0.878800  0.373300  0.714400  1.0  -1.034
  O  O104  1  0.664900  0.680300  0.391100  1.0  -1.0117
  O  O105  1  0.802200  0.612200  0.527400  1.0  -1.0386
  O  O106  1  0.864100  0.200300  0.637600  1.0  -0.8569
  O  O107  1  0.859900  0.368400  0.223000  1.0  -0.9935
  O  O108  1  0.972400  0.329500  0.611900  1.0  -0.9931
  O  O109  1  0.436300  0.973400  0.364300  1.0  -1.0649
  O  O110  1  0.220500  0.005600  0.387300  1.0  -0.917
  O  O111  1  0.327100  0.151700  0.379100  1.0  -1.0521
  O  O112  1  0.338500  0.820700  0.370700  1.0  -0.9058
  O  O113  1  0.498700  0.797600  0.359400  1.0  -0.9995
  O  O114  1  0.291500  0.856500  0.545800  1.0  -1.0222
  O  O115  1  0.378800  0.873300  0.714400  1.0  -1.034
  O  O116  1  0.164900  0.180300  0.391100  1.0  -1.0112
  O  O117  1  0.302200  0.112200  0.527400  1.0  -1.0389
  O  O118  1  0.364100  0.700300  0.637600  1.0  -0.8569
  O  O119  1  0.359900  0.868400  0.223000  1.0  -0.9929
  O  O120  1  0.472400  0.829500  0.611900  1.0  -0.9931
  O  O121  1  0.063700  0.473400  0.135700  1.0  -1.0653
  O  O122  1  0.279500  0.505600  0.112700  1.0  -0.9151
  O  O123  1  0.172900  0.651700  0.120900  1.0  -1.0519
  O  O124  1  0.161500  0.320700  0.129300  1.0  -0.9042
  O  O125  1  0.001300  0.297600  0.140600  1.0  -1.0006
  O  O126  1  0.208500  0.356500  0.954200  1.0  -1.0218
  O  O127  1  0.121200  0.373300  0.785600  1.0  -1.0318
  O  O128  1  0.335100  0.680300  0.108900  1.0  -1.0121
  O  O129  1  0.197800  0.612200  0.972600  1.0  -1.0362
  O  O130  1  0.135900  0.200300  0.862400  1.0  -0.856
  O  O131  1  0.140100  0.368400  0.277000  1.0  -0.9933
  O  O132  1  0.027600  0.329500  0.888100  1.0  -0.9964
  O  O133  1  0.563700  0.973400  0.135700  1.0  -1.0653
  O  O134  1  0.779500  0.005600  0.112700  1.0  -0.9151
  O  O135  1  0.672900  0.151700  0.120900  1.0  -1.0519
  O  O136  1  0.661500  0.820700  0.129300  1.0  -0.9042
  O  O137  1  0.501300  0.797600  0.140600  1.0  -1.0004
  O  O138  1  0.708500  0.856500  0.954200  1.0  -1.0218
  O  O139  1  0.621200  0.873300  0.785600  1.0  -1.0318
  O  O140  1  0.835100  0.180300  0.108900  1.0  -1.0117
  O  O141  1  0.697800  0.112200  0.972600  1.0  -1.0371
  O  O142  1  0.635900  0.700300  0.862400  1.0  -0.856
  O  O143  1  0.640100  0.868400  0.277000  1.0  -0.9933
  O  O144  1  0.527600  0.829500  0.888100  1.0  -0.9964
