# generated using pymatgen
data_Ag3P4H89C83S3
_symmetry_space_group_name_H-M   'P 1'
_cell_length_a   16.28930000
_cell_length_b   16.79910000
_cell_length_c   17.48290000
_cell_angle_alpha   86.41900000
_cell_angle_beta   87.72500000
_cell_angle_gamma   66.90500000
_symmetry_Int_Tables_number   1
_chemical_formula_structural   Ag3P4H89C83S3
_chemical_formula_sum   'Ag6 P8 H178 C166 S6'
_cell_volume   4391.50457732
_cell_formula_units_Z   2
loop_
 _symmetry_equiv_pos_site_id
 _symmetry_equiv_pos_as_xyz
  1  'x, y, z'
loop_
 _atom_site_type_symbol
 _atom_site_label
 _atom_site_symmetry_multiplicity
 _atom_site_fract_x
 _atom_site_fract_y
 _atom_site_fract_z
 _atom_site_occupancy
 _atom_site_charge
  Ag  Ag1  1  0.779040  0.071060  0.149220  1.0  0.1441
  Ag  Ag2  1  0.603570  0.298850  0.201860  1.0  0.347
  Ag  Ag3  1  0.731490  0.099900  0.390540  1.0  0.2518
  Ag  Ag4  1  0.220960  0.928940  0.850780  1.0  0.1417
  Ag  Ag5  1  0.396430  0.701150  0.798140  1.0  0.3477
  Ag  Ag6  1  0.268510  0.900100  0.609460  1.0  0.254
  P  P7  1  0.773540  0.121010  0.518750  1.0  0.6713
  P  P8  1  0.712440  0.954070  0.420980  1.0  0.5949
  P  P9  1  0.818420  0.953920  0.061260  1.0  0.6454
  P  P10  1  0.499320  0.448230  0.194260  1.0  0.6599
  P  P11  1  0.226460  0.878990  0.481250  1.0  0.6716
  P  P12  1  0.287560  0.045930  0.579020  1.0  0.5721
  P  P13  1  0.181580  0.046080  0.938740  1.0  0.6478
  P  P14  1  0.500680  0.551770  0.805740  1.0  0.6836
  H  H15  1  0.586300  0.190400  0.529900  1.0  0.0967
  H  H16  1  0.477200  0.171600  0.611000  1.0  0.0968
  H  H17  1  0.518500  0.070400  0.713900  1.0  0.0949
  H  H18  1  0.669000  0.990500  0.738900  1.0  0.0949
  H  H19  1  0.779500  0.010600  0.659300  1.0  0.0986
  H  H20  1  0.770900  0.282600  0.450000  1.0  0.1062
  H  H21  1  0.777200  0.407900  0.495000  1.0  0.1056
  H  H22  1  0.791500  0.419200  0.625100  1.0  0.1103
  H  H23  1  0.798200  0.306100  0.711200  1.0  0.0919
  H  H24  1  0.790500  0.181000  0.667500  1.0  0.1072
  H  H25  1  0.897400  0.047300  0.597600  1.0  0.1153
  H  H26  1  0.876500  0.979300  0.549600  1.0  0.1253
  H  H27  1  0.939700  0.021900  0.437300  1.0  0.0876
  H  H28  1  0.958800  0.091700  0.484000  1.0  0.0747
  H  H29  1  0.652300  0.017300  0.269500  1.0  0.0943
  H  H30  1  0.621100  0.960800  0.160900  1.0  0.1042
  H  H31  1  0.642300  0.815300  0.162200  1.0  0.1062
  H  H32  1  0.694400  0.726000  0.271900  1.0  0.1048
  H  H33  1  0.725600  0.781700  0.380800  1.0  0.0995
  H  H34  1  0.771100  0.848500  0.565000  1.0  0.0945
  H  H35  1  0.909200  0.756100  0.612900  1.0  0.1053
  H  H36  1  0.037800  0.723100  0.536000  1.0  0.1064
  H  H37  1  0.027600  0.781800  0.411600  1.0  0.0871
  H  H38  1  0.890200  0.875600  0.362700  1.0  0.1013
  H  H39  1  0.633100  0.884400  0.494400  1.0  0.1196
  H  H40  1  0.641800  0.959100  0.541900  1.0  0.1271
  H  H41  1  0.519400  0.990500  0.419300  1.0  0.0758
  H  H42  1  0.528400  0.065500  0.466300  1.0  0.0731
  H  H43  1  0.686500  0.064400  0.960400  1.0  0.1
  H  H44  1  0.578600  0.053800  0.883500  1.0  0.1022
  H  H45  1  0.563400  0.922500  0.876800  1.0  0.108
  H  H46  1  0.658100  0.800700  0.947300  1.0  0.1077
  H  H47  1  0.765300  0.810700  0.026400  1.0  0.0997
  H  H48  1  0.843300  0.875900  0.210900  1.0  0.0932
  H  H49  1  0.925600  0.740100  0.267700  1.0  0.1032
  H  H50  1  0.016700  0.628400  0.193300  1.0  0.1012
  H  H51  1  0.027200  0.652400  0.061300  1.0  0.1104
  H  H52  1  0.945600  0.788300  0.003900  1.0  0.1059
  H  H53  1  0.919000  0.926800  0.955700  1.0  0.1274
  H  H54  1  0.859600  0.028600  0.957700  1.0  0.1169
  H  H55  1  0.943600  0.036600  0.064700  1.0  0.0817
  H  H56  1  0.004500  0.935500  0.059400  1.0  0.0735
  H  H57  1  0.382800  0.548200  0.316700  1.0  0.1008
  H  H58  1  0.400200  0.632300  0.410300  1.0  0.085
  H  H59  1  0.533300  0.649400  0.420800  1.0  0.1007
  H  H60  1  0.653600  0.577400  0.339400  1.0  0.1064
  H  H61  1  0.638100  0.491500  0.245600  1.0  0.1148
  H  H62  1  0.406100  0.339200  0.230400  1.0  0.0973
  H  H63  1  0.258600  0.351600  0.224400  1.0  0.103
  H  H64  1  0.147800  0.481000  0.180500  1.0  0.1073
  H  H65  1  0.182300  0.600600  0.146800  1.0  0.1047
  H  H66  1  0.328900  0.588900  0.152700  1.0  0.0973
  H  H67  1  0.464800  0.571500  0.110200  1.0  0.1343
  H  H68  1  0.570000  0.514800  0.107400  1.0  0.1296
  H  H69  1  0.442100  0.464100  0.038800  1.0  0.0762
  H  H70  1  0.548200  0.414000  0.031800  1.0  0.075
  H  H71  1  0.495100  0.236000  0.926800  1.0  0.1097
  H  H72  1  0.720800  0.239500  0.829400  1.0  0.0991
  H  H73  1  0.571700  0.168500  0.106200  1.0  0.1365
  H  H74  1  0.484200  0.203500  0.054900  1.0  0.1146
  H  H75  1  0.510100  0.269900  0.100400  1.0  0.1392
  H  H76  1  0.524500  0.212500  0.788800  1.0  0.1199
  H  H77  1  0.609000  0.225300  0.749000  1.0  0.1193
  H  H78  1  0.523900  0.307800  0.774500  1.0  0.1058
  H  H79  1  0.810100  0.289100  0.969800  1.0  0.1243
  H  H80  1  0.841900  0.228100  0.898500  1.0  0.1195
  H  H81  1  0.850700  0.185900  0.984000  1.0  0.1208
  H  H82  1  0.979400  0.253000  0.251200  1.0  0.1057
  H  H83  1  0.144500  0.009100  0.209500  1.0  0.1046
  H  H84  1  0.786700  0.238000  0.242600  1.0  0.1361
  H  H85  1  0.832400  0.291200  0.285500  1.0  0.1321
  H  H86  1  0.807200  0.218500  0.332100  1.0  0.1351
  H  H87  1  0.125600  0.226300  0.192900  1.0  0.136
  H  H88  1  0.188900  0.130400  0.170200  1.0  0.1229
  H  H89  1  0.184500  0.157600  0.256900  1.0  0.138
  H  H90  1  0.030900  0.901300  0.287600  1.0  0.124
  H  H91  1  0.100000  0.894700  0.218300  1.0  0.1198
  H  H92  1  0.997100  0.918200  0.201100  1.0  0.1222
  H  H93  1  0.392900  0.410900  0.462500  1.0  0.1057
  H  H94  1  0.297000  0.249100  0.376700  1.0  0.0975
  H  H95  1  0.606300  0.300500  0.442100  1.0  0.1182
  H  H96  1  0.537000  0.399500  0.440000  1.0  0.1153
  H  H97  1  0.584300  0.356300  0.362400  1.0  0.1293
  H  H98  1  0.251400  0.408800  0.512900  1.0  0.1294
  H  H99  1  0.212400  0.345000  0.478500  1.0  0.1337
  H  H100  1  0.204600  0.432200  0.431100  1.0  0.1416
  H  H101  1  0.445900  0.167400  0.242100  1.0  0.1259
  H  H102  1  0.377300  0.142500  0.296500  1.0  0.1218
  H  H103  1  0.482100  0.097600  0.312200  1.0  0.1241
  H  H104  1  0.413700  0.809600  0.470100  1.0  0.097
  H  H105  1  0.522800  0.828400  0.389000  1.0  0.0966
  H  H106  1  0.481500  0.929600  0.286100  1.0  0.0949
  H  H107  1  0.331000  0.009500  0.261100  1.0  0.0948
  H  H108  1  0.220500  0.989400  0.340700  1.0  0.0991
  H  H109  1  0.229100  0.717400  0.550000  1.0  0.1074
  H  H110  1  0.222800  0.592100  0.505000  1.0  0.1056
  H  H111  1  0.208500  0.580800  0.374900  1.0  0.1097
  H  H112  1  0.201800  0.693900  0.288800  1.0  0.091
  H  H113  1  0.209500  0.819000  0.332500  1.0  0.1057
  H  H114  1  0.102600  0.952700  0.402400  1.0  0.1163
  H  H115  1  0.123500  0.020700  0.450400  1.0  0.1243
  H  H116  1  0.060300  0.978100  0.562700  1.0  0.0869
  H  H117  1  0.041200  0.908300  0.516000  1.0  0.0733
  H  H118  1  0.347700  0.982700  0.730500  1.0  0.0938
  H  H119  1  0.378900  0.039200  0.839100  1.0  0.1041
  H  H120  1  0.357700  0.184700  0.837800  1.0  0.104
  H  H121  1  0.305600  0.274000  0.728100  1.0  0.1036
  H  H122  1  0.274400  0.218300  0.619200  1.0  0.1
  H  H123  1  0.228900  0.151500  0.435000  1.0  0.0944
  H  H124  1  0.090800  0.243900  0.387100  1.0  0.1047
  H  H125  1  0.962200  0.276900  0.464000  1.0  0.1069
  H  H126  1  0.972400  0.218200  0.588400  1.0  0.0873
  H  H127  1  0.109800  0.124400  0.637300  1.0  0.1021
  H  H128  1  0.366900  0.115600  0.505600  1.0  0.1186
  H  H129  1  0.358200  0.040900  0.458100  1.0  0.1285
  H  H130  1  0.480600  0.009500  0.580700  1.0  0.0747
  H  H131  1  0.471600  0.934500  0.533700  1.0  0.0725
  H  H132  1  0.313500  0.935600  0.039600  1.0  0.0997
  H  H133  1  0.421400  0.946200  0.116500  1.0  0.1025
  H  H134  1  0.436600  0.077500  0.123200  1.0  0.1074
  H  H135  1  0.341900  0.199300  0.052700  1.0  0.1073
  H  H136  1  0.234700  0.189300  0.973600  1.0  0.0995
  H  H137  1  0.156700  0.124100  0.789100  1.0  0.0931
  H  H138  1  0.074400  0.259900  0.732300  1.0  0.1027
  H  H139  1  0.983300  0.371600  0.806700  1.0  0.1015
  H  H140  1  0.972800  0.347600  0.938700  1.0  0.1111
  H  H141  1  0.054400  0.211700  0.996100  1.0  0.1063
  H  H142  1  0.081000  0.073200  0.044300  1.0  0.1265
  H  H143  1  0.140400  0.971400  0.042300  1.0  0.1174
  H  H144  1  0.056400  0.963400  0.935300  1.0  0.0827
  H  H145  1  0.995500  0.064500  0.940600  1.0  0.0733
  H  H146  1  0.617200  0.451800  0.683300  1.0  0.1018
  H  H147  1  0.599800  0.367700  0.589700  1.0  0.0849
  H  H148  1  0.466700  0.350600  0.579200  1.0  0.1002
  H  H149  1  0.346400  0.422600  0.660600  1.0  0.1047
  H  H150  1  0.361900  0.508500  0.754400  1.0  0.1143
  H  H151  1  0.593900  0.660800  0.769600  1.0  0.0984
  H  H152  1  0.741400  0.648400  0.775600  1.0  0.1031
  H  H153  1  0.852200  0.519000  0.819500  1.0  0.1096
  H  H154  1  0.817700  0.399400  0.853200  1.0  0.1041
  H  H155  1  0.671100  0.411100  0.847300  1.0  0.0965
  H  H156  1  0.535200  0.428500  0.889800  1.0  0.1355
  H  H157  1  0.430000  0.485200  0.892600  1.0  0.1308
  H  H158  1  0.557900  0.535900  0.961200  1.0  0.0774
  H  H159  1  0.451800  0.586000  0.968200  1.0  0.0775
  H  H160  1  0.504900  0.764000  0.073200  1.0  0.1099
  H  H161  1  0.279200  0.760500  0.170600  1.0  0.0986
  H  H162  1  0.428300  0.831500  0.893800  1.0  0.1369
  H  H163  1  0.515800  0.796500  0.945100  1.0  0.1156
  H  H164  1  0.489900  0.730100  0.899600  1.0  0.1382
  H  H165  1  0.475500  0.787500  0.211200  1.0  0.1206
  H  H166  1  0.391000  0.774700  0.251000  1.0  0.1181
  H  H167  1  0.476100  0.692200  0.225500  1.0  0.1071
  H  H168  1  0.189900  0.710900  0.030200  1.0  0.124
  H  H169  1  0.158100  0.771900  0.101500  1.0  0.1206
  H  H170  1  0.149300  0.814100  0.016000  1.0  0.1204
  H  H171  1  0.020600  0.747000  0.748800  1.0  0.1054
  H  H172  1  0.855500  0.990900  0.790500  1.0  0.1052
  H  H173  1  0.213300  0.762000  0.757400  1.0  0.1369
  H  H174  1  0.167600  0.708800  0.714500  1.0  0.1309
  H  H175  1  0.192800  0.781500  0.667900  1.0  0.1371
  H  H176  1  0.874400  0.773700  0.807100  1.0  0.1384
  H  H177  1  0.811100  0.869600  0.829800  1.0  0.1242
  H  H178  1  0.815500  0.842400  0.743100  1.0  0.1371
  H  H179  1  0.969100  0.098700  0.712400  1.0  0.1232
  H  H180  1  0.900000  0.105300  0.781700  1.0  0.1204
  H  H181  1  0.002900  0.081800  0.798900  1.0  0.1221
  H  H182  1  0.607100  0.589100  0.537500  1.0  0.1042
  H  H183  1  0.703000  0.750900  0.623300  1.0  0.0988
  H  H184  1  0.393700  0.699500  0.557900  1.0  0.1165
  H  H185  1  0.463000  0.600500  0.560000  1.0  0.1149
  H  H186  1  0.415700  0.643700  0.637600  1.0  0.1287
  H  H187  1  0.748600  0.591200  0.487100  1.0  0.1283
  H  H188  1  0.787600  0.655000  0.521500  1.0  0.1359
  H  H189  1  0.795400  0.567800  0.568900  1.0  0.1426
  H  H190  1  0.554100  0.832600  0.757900  1.0  0.1257
  H  H191  1  0.622700  0.857500  0.703500  1.0  0.1215
  H  H192  1  0.517900  0.902400  0.687800  1.0  0.1241
  C  C193  1  0.693690  0.103070  0.586700  1.0  -0.2305
  C  C194  1  0.603580  0.150000  0.572680  1.0  -0.0686
  C  C195  1  0.538530  0.138420  0.620560  1.0  -0.1023
  C  C196  1  0.563020  0.078890  0.681720  1.0  -0.1009
  C  C197  1  0.652350  0.031380  0.696450  1.0  -0.1133
  C  C198  1  0.718210  0.043250  0.649030  1.0  -0.1175
  C  C199  1  0.779620  0.219320  0.554170  1.0  -0.2375
  C  C200  1  0.776090  0.287030  0.503350  1.0  -0.0838
  C  C201  1  0.780200  0.361410  0.530100  1.0  -0.101
  C  C202  1  0.788480  0.368170  0.607140  1.0  -0.1026
  C  C203  1  0.792410  0.301410  0.657970  1.0  -0.0841
  C  C204  1  0.787900  0.227050  0.632010  1.0  -0.1106
  C  C205  1  0.881430  0.036370  0.546310  1.0  -0.3364
  C  C206  1  0.955020  0.034220  0.488290  1.0  -0.0568
  C  C207  1  0.692010  0.905360  0.336700  1.0  -0.2808
  C  C208  1  0.660900  0.957980  0.270390  1.0  -0.058
  C  C209  1  0.642390  0.924450  0.205650  1.0  -0.104
  C  C210  1  0.654930  0.838300  0.206500  1.0  -0.1095
  C  C211  1  0.685780  0.785360  0.271480  1.0  -0.1024
  C  C212  1  0.704320  0.818580  0.336310  1.0  -0.0663
  C  C213  1  0.815800  0.871890  0.458940  1.0  -0.2918
  C  C214  1  0.823050  0.835460  0.533450  1.0  -0.0849
  C  C215  1  0.905160  0.780400  0.561990  1.0  -0.0951
  C  C216  1  0.981450  0.760720  0.516350  1.0  -0.1033
  C  C217  1  0.975320  0.795720  0.442890  1.0  -0.0971
  C  C218  1  0.893470  0.851370  0.413610  1.0  -0.0717
  C  C219  1  0.628550  0.945070  0.490830  1.0  -0.349
  C  C220  1  0.533510  0.004730  0.469960  1.0  -0.0794
  C  C221  1  0.736810  0.939060  0.001400  1.0  -0.2893
  C  C222  1  0.680760  0.010460  0.958350  1.0  -0.0645
  C  C223  1  0.616690  0.004150  0.912420  1.0  -0.0986
  C  C224  1  0.607650  0.926700  0.908310  1.0  -0.1102
  C  C225  1  0.663600  0.854700  0.950500  1.0  -0.0898
  C  C226  1  0.727650  0.860370  0.997210  1.0  -0.0735
  C  C227  1  0.884970  0.845960  0.101500  1.0  -0.2169
  C  C228  1  0.880450  0.830580  0.179960  1.0  -0.0509
  C  C229  1  0.929400  0.749800  0.213830  1.0  -0.0965
  C  C230  1  0.983490  0.683820  0.169870  1.0  -0.1292
  C  C231  1  0.989600  0.697970  0.091740  1.0  -0.1165
  C  C232  1  0.940880  0.778680  0.057700  1.0  -0.0873
  C  C233  1  0.893640  0.975980  0.989680  1.0  -0.3673
  C  C234  1  0.969250  0.989050  0.029000  1.0  -0.0637
  C  C235  1  0.507850  0.513680  0.269990  1.0  -0.2349
  C  C236  1  0.437950  0.554570  0.320520  1.0  -0.1039
  C  C237  1  0.448500  0.604400  0.376230  1.0  -0.0964
  C  C238  1  0.527200  0.613960  0.382990  1.0  -0.0949
  C  C239  1  0.598400  0.571700  0.334350  1.0  -0.1071
  C  C240  1  0.588960  0.521110  0.278300  1.0  -0.0609
  C  C241  1  0.382500  0.462760  0.192580  1.0  -0.2085
  C  C242  1  0.360840  0.392650  0.213360  1.0  -0.0565
  C  C243  1  0.273200  0.399900  0.209400  1.0  -0.0892
  C  C244  1  0.207400  0.476700  0.184000  1.0  -0.1253
  C  C245  1  0.227870  0.547300  0.163500  1.0  -0.0962
  C  C246  1  0.314860  0.540270  0.167400  1.0  -0.0848
  C  C247  1  0.510450  0.511710  0.108320  1.0  -0.3557
  C  C248  1  0.499370  0.471900  0.035730  1.0  -0.0597
  C  C249  1  0.672530  0.230170  0.012310  1.0  -0.1883
  C  C250  1  0.587820  0.228340  0.004500  1.0  0.0467
  C  C251  1  0.553500  0.234830  0.931470  1.0  -0.2249
  C  C252  1  0.601800  0.239620  0.865620  1.0  0.0683
  C  C253  1  0.686200  0.237990  0.874180  1.0  -0.2084
  C  C254  1  0.723100  0.234280  0.945380  1.0  0.0364
  C  C255  1  0.533790  0.216500  0.072360  1.0  -0.4107
  C  C256  1  0.561200  0.247000  0.787570  1.0  -0.3854
  C  C257  1  0.814300  0.234300  0.949800  1.0  -0.4039
  C  C258  1  0.933460  0.079840  0.260620  1.0  -0.1234
  C  C259  1  0.919180  0.167580  0.264110  1.0  0.03
  C  C260  1  0.989570  0.193600  0.248090  1.0  -0.2275
  C  C261  1  0.074240  0.135600  0.227640  1.0  0.0714
  C  C262  1  0.087140  0.049500  0.224040  1.0  -0.209
  C  C263  1  0.019740  0.019660  0.240780  1.0  0.0303
  C  C264  1  0.828490  0.234660  0.282710  1.0  -0.4714
  C  C265  1  0.150000  0.165100  0.210400  1.0  -0.382
  C  C266  1  0.038570  0.925290  0.236590  1.0  -0.4093
  C  C267  1  0.497360  0.247070  0.355500  1.0  -0.133
  C  C268  1  0.485040  0.317770  0.400440  1.0  0.0411
  C  C269  1  0.401610  0.361820  0.433950  1.0  -0.2062
  C  C270  1  0.331300  0.336700  0.427100  1.0  0.0652
  C  C271  1  0.344980  0.266880  0.382440  1.0  -0.231
  C  C272  1  0.425410  0.222220  0.346110  1.0  0.0269
  C  C273  1  0.559560  0.345940  0.412280  1.0  -0.4186
  C  C274  1  0.242000  0.384900  0.465800  1.0  -0.3987
  C  C275  1  0.433400  0.151290  0.294810  1.0  -0.4046
  C  C276  1  0.306310  0.896930  0.413300  1.0  -0.233
  C  C277  1  0.396420  0.850000  0.427320  1.0  -0.0698
  C  C278  1  0.461470  0.861580  0.379440  1.0  -0.1025
  C  C279  1  0.436980  0.921110  0.318280  1.0  -0.0997
  C  C280  1  0.347650  0.968620  0.303550  1.0  -0.113
  C  C281  1  0.281790  0.956750  0.350970  1.0  -0.116
  C  C282  1  0.220380  0.780680  0.445830  1.0  -0.2365
  C  C283  1  0.223910  0.712970  0.496650  1.0  -0.0848
  C  C284  1  0.219800  0.638590  0.469900  1.0  -0.1016
  C  C285  1  0.211520  0.631830  0.392860  1.0  -0.1025
  C  C286  1  0.207590  0.698590  0.342030  1.0  -0.0839
  C  C287  1  0.212100  0.772950  0.367990  1.0  -0.1083
  C  C288  1  0.118570  0.963630  0.453690  1.0  -0.3372
  C  C289  1  0.044980  0.965780  0.511710  1.0  -0.0589
  C  C290  1  0.307990  0.094640  0.663300  1.0  -0.2813
  C  C291  1  0.339100  0.042020  0.729610  1.0  -0.0588
  C  C292  1  0.357610  0.075550  0.794350  1.0  -0.1029
  C  C293  1  0.345070  0.161700  0.793500  1.0  -0.1071
  C  C294  1  0.314220  0.214640  0.728520  1.0  -0.0986
  C  C295  1  0.295680  0.181420  0.663690  1.0  -0.0662
  C  C296  1  0.184200  0.128110  0.541060  1.0  -0.2924
  C  C297  1  0.176950  0.164540  0.466550  1.0  -0.085
  C  C298  1  0.094840  0.219600  0.438010  1.0  -0.0961
  C  C299  1  0.018550  0.239280  0.483650  1.0  -0.1001
  C  C300  1  0.024680  0.204280  0.557110  1.0  -0.0956
  C  C301  1  0.106530  0.148630  0.586390  1.0  -0.0706
  C  C302  1  0.371450  0.054930  0.509170  1.0  -0.346
  C  C303  1  0.466490  0.995270  0.530040  1.0  -0.0852
  C  C304  1  0.263190  0.060940  0.998600  1.0  -0.2912
  C  C305  1  0.319240  0.989540  0.041650  1.0  -0.0638
  C  C306  1  0.383310  0.995850  0.087580  1.0  -0.0992
  C  C307  1  0.392350  0.073300  0.091690  1.0  -0.1106
  C  C308  1  0.336400  0.145300  0.049500  1.0  -0.0876
  C  C309  1  0.272350  0.139630  0.002790  1.0  -0.0757
  C  C310  1  0.115030  0.154040  0.898500  1.0  -0.2153
  C  C311  1  0.119550  0.169420  0.820040  1.0  -0.0523
  C  C312  1  0.070600  0.250200  0.786170  1.0  -0.0944
  C  C313  1  0.016510  0.316180  0.830130  1.0  -0.1267
  C  C314  1  0.010400  0.302030  0.908260  1.0  -0.1149
  C  C315  1  0.059120  0.221320  0.942300  1.0  -0.0872
  C  C316  1  0.106360  0.024020  0.010320  1.0  -0.3702
  C  C317  1  0.030750  0.010950  0.971000  1.0  -0.0636
  C  C318  1  0.492150  0.486320  0.730010  1.0  -0.2342
  C  C319  1  0.562050  0.445430  0.679480  1.0  -0.1047
  C  C320  1  0.551500  0.395600  0.623770  1.0  -0.0958
  C  C321  1  0.472800  0.386040  0.617010  1.0  -0.0962
  C  C322  1  0.401600  0.428300  0.665650  1.0  -0.1058
  C  C323  1  0.411040  0.478890  0.721700  1.0  -0.0606
  C  C324  1  0.617500  0.537240  0.807420  1.0  -0.2057
  C  C325  1  0.639160  0.607350  0.786640  1.0  -0.055
  C  C326  1  0.726800  0.600100  0.790600  1.0  -0.0897
  C  C327  1  0.792600  0.523300  0.816000  1.0  -0.125
  C  C328  1  0.772130  0.452700  0.836500  1.0  -0.0984
  C  C329  1  0.685140  0.459730  0.832600  1.0  -0.0799
  C  C330  1  0.489550  0.488290  0.891680  1.0  -0.3575
  C  C331  1  0.500630  0.528100  0.964270  1.0  -0.0581
  C  C332  1  0.327470  0.769830  0.987690  1.0  -0.1889
  C  C333  1  0.412180  0.771660  0.995500  1.0  0.0454
  C  C334  1  0.446500  0.765170  0.068530  1.0  -0.2228
  C  C335  1  0.398200  0.760380  0.134380  1.0  0.0692
  C  C336  1  0.313800  0.762010  0.125820  1.0  -0.2106
  C  C337  1  0.276900  0.765720  0.054620  1.0  0.0368
  C  C338  1  0.466210  0.783500  0.927640  1.0  -0.4112
  C  C339  1  0.438800  0.753000  0.212430  1.0  -0.387
  C  C340  1  0.185700  0.765700  0.050200  1.0  -0.4034
  C  C341  1  0.066540  0.920160  0.739380  1.0  -0.1229
  C  C342  1  0.080820  0.832420  0.735890  1.0  0.0302
  C  C343  1  0.010430  0.806400  0.751910  1.0  -0.2289
  C  C344  1  0.925760  0.864400  0.772360  1.0  0.0714
  C  C345  1  0.912860  0.950500  0.775960  1.0  -0.2146
  C  C346  1  0.980260  0.980340  0.759220  1.0  0.0311
  C  C347  1  0.171510  0.765340  0.717290  1.0  -0.4718
  C  C348  1  0.850000  0.834900  0.789600  1.0  -0.3826
  C  C349  1  0.961430  0.074710  0.763410  1.0  -0.4075
  C  C350  1  0.502640  0.752930  0.644500  1.0  -0.1329
  C  C351  1  0.514960  0.682230  0.599560  1.0  0.0417
  C  C352  1  0.598390  0.638180  0.566050  1.0  -0.2072
  C  C353  1  0.668700  0.663300  0.572900  1.0  0.0642
  C  C354  1  0.655020  0.733120  0.617560  1.0  -0.2277
  C  C355  1  0.574590  0.777780  0.653890  1.0  0.0269
  C  C356  1  0.440440  0.654060  0.587720  1.0  -0.4172
  C  C357  1  0.758000  0.615100  0.534200  1.0  -0.3998
  C  C358  1  0.566600  0.848710  0.705190  1.0  -0.4031
  S  S359  1  0.720350  0.225550  0.102600  1.0  -0.2023
  S  S360  1  0.846580  0.042020  0.278790  1.0  -0.2185
  S  S361  1  0.599860  0.192710  0.306200  1.0  -0.2123
  S  S362  1  0.279650  0.774450  0.897400  1.0  -0.2023
  S  S363  1  0.153420  0.957980  0.721210  1.0  -0.2182
  S  S364  1  0.400140  0.807290  0.693800  1.0  -0.2121
