# generated using pymatgen
data_Zn2H32C43(NO6)2
_symmetry_space_group_name_H-M   'P 1'
_cell_length_a   13.99660000
_cell_length_b   13.99660000
_cell_length_c   30.52100000
_cell_angle_alpha   85.08280000
_cell_angle_beta   85.08280000
_cell_angle_gamma   88.52080000
_symmetry_Int_Tables_number   1
_chemical_formula_structural   Zn2H32C43(NO6)2
_chemical_formula_sum   'Zn8 H128 C172 N8 O48'
_cell_volume   5934.25292282
_cell_formula_units_Z   4
loop_
 _symmetry_equiv_pos_site_id
 _symmetry_equiv_pos_as_xyz
  1  'x, y, z'
loop_
 _atom_site_type_symbol
 _atom_site_label
 _atom_site_symmetry_multiplicity
 _atom_site_fract_x
 _atom_site_fract_y
 _atom_site_fract_z
 _atom_site_occupancy
 _atom_site_charge
  Zn  Zn1  1  0.601870  0.195030  0.531200  1.0  0.9436
  Zn  Zn2  1  0.811530  0.195710  0.514580  1.0  0.9235
  Zn  Zn3  1  0.195030  0.601870  0.031200  1.0  0.9411
  Zn  Zn4  1  0.195710  0.811530  0.014580  1.0  0.9238
  Zn  Zn5  1  0.804970  0.398130  0.968800  1.0  0.9423
  Zn  Zn6  1  0.804290  0.188470  0.985420  1.0  0.9221
  Zn  Zn7  1  0.398130  0.804970  0.468800  1.0  0.9413
  Zn  Zn8  1  0.188470  0.804290  0.485420  1.0  0.9221
  H  H9  1  0.831900  0.689100  0.717400  1.0  0.0655
  H  H10  1  0.804400  0.773800  0.747100  1.0  0.0627
  H  H11  1  0.568700  0.822900  0.670700  1.0  0.1362
  H  H12  1  0.576700  0.940500  0.615100  1.0  0.0924
  H  H13  1  0.861600  0.947200  0.616000  1.0  0.1026
  H  H14  1  0.855400  0.827200  0.672400  1.0  0.1253
  H  H15  1  0.815900  0.571900  0.825000  1.0  0.0693
  H  H16  1  0.882200  0.583200  0.780500  1.0  0.0797
  H  H17  1  0.951300  0.554500  0.857500  1.0  0.1251
  H  H18  1  0.036900  0.563300  0.917700  1.0  0.1002
  H  H19  1  0.012400  0.849600  0.906100  1.0  0.1023
  H  H20  1  0.925400  0.842400  0.845700  1.0  0.1218
  H  H21  1  0.695600  0.750400  0.814000  1.0  0.0676
  H  H22  1  0.615000  0.710400  0.787900  1.0  0.0636
  H  H23  1  0.544500  0.782700  0.848900  1.0  0.1064
  H  H24  1  0.425400  0.812800  0.902900  1.0  0.1159
  H  H25  1  0.458800  0.543600  0.958600  1.0  0.1044
  H  H26  1  0.583900  0.517700  0.905900  1.0  0.0975
  H  H27  1  0.650600  0.578000  0.739800  1.0  0.0603
  H  H28  1  0.683900  0.511700  0.780200  1.0  0.0707
  H  H29  1  0.892100  0.445100  0.673100  1.0  0.1183
  H  H30  1  0.863400  0.352400  0.616900  1.0  0.1036
  H  H31  1  0.581800  0.361600  0.653100  1.0  0.096
  H  H32  1  0.608200  0.454800  0.710000  1.0  0.1198
  H  H33  1  0.460400  0.123000  0.475100  1.0  0.088
  H  H34  1  0.298300  0.127100  0.467900  1.0  0.1048
  H  H35  1  0.259500  0.262500  0.579100  1.0  0.1269
  H  H36  1  0.421200  0.254600  0.583100  1.0  0.0652
  H  H37  1  0.961700  0.321700  0.541000  1.0  0.0996
  H  H38  1  0.123700  0.321100  0.546400  1.0  0.1119
  H  H39  1  0.146800  0.077600  0.487000  1.0  0.1121
  H  H40  1  0.982800  0.086800  0.481300  1.0  0.0749
  H  H41  1  0.689100  0.831900  0.217400  1.0  0.0664
  H  H42  1  0.773800  0.804400  0.247100  1.0  0.0647
  H  H43  1  0.822900  0.568700  0.170700  1.0  0.1361
  H  H44  1  0.940500  0.576700  0.115100  1.0  0.0925
  H  H45  1  0.947200  0.861600  0.116000  1.0  0.1023
  H  H46  1  0.827200  0.855400  0.172400  1.0  0.1246
  H  H47  1  0.571900  0.815900  0.325000  1.0  0.0691
  H  H48  1  0.583200  0.882200  0.280500  1.0  0.0783
  H  H49  1  0.554500  0.951300  0.357500  1.0  0.1249
  H  H50  1  0.563300  0.036900  0.417700  1.0  0.0995
  H  H51  1  0.849600  0.012400  0.406100  1.0  0.1018
  H  H52  1  0.842400  0.925400  0.345700  1.0  0.1199
  H  H53  1  0.750400  0.695600  0.314000  1.0  0.0701
  H  H54  1  0.710400  0.615000  0.287900  1.0  0.063
  H  H55  1  0.782700  0.544500  0.348900  1.0  0.1082
  H  H56  1  0.812800  0.425400  0.402900  1.0  0.115
  H  H57  1  0.543600  0.458800  0.458600  1.0  0.1043
  H  H58  1  0.517700  0.583900  0.405900  1.0  0.0966
  H  H59  1  0.578000  0.650600  0.239800  1.0  0.061
  H  H60  1  0.511700  0.683900  0.280200  1.0  0.0725
  H  H61  1  0.445100  0.892100  0.173100  1.0  0.1197
  H  H62  1  0.352400  0.863400  0.116900  1.0  0.1035
  H  H63  1  0.361600  0.581800  0.153100  1.0  0.0973
  H  H64  1  0.454800  0.608200  0.210000  1.0  0.1205
  H  H65  1  0.123000  0.460400  0.975100  1.0  0.0885
  H  H66  1  0.127100  0.298300  0.967900  1.0  0.1068
  H  H67  1  0.262500  0.259500  0.079100  1.0  0.1266
  H  H68  1  0.254600  0.421200  0.083100  1.0  0.0655
  H  H69  1  0.321700  0.961700  0.041000  1.0  0.0999
  H  H70  1  0.321100  0.123700  0.046400  1.0  0.1118
  H  H71  1  0.077600  0.146800  0.987000  1.0  0.1116
  H  H72  1  0.086800  0.982800  0.981300  1.0  0.0743
  H  H73  1  0.310900  0.168100  0.782600  1.0  0.067
  H  H74  1  0.226200  0.195600  0.752900  1.0  0.0623
  H  H75  1  0.177100  0.431300  0.829300  1.0  0.1354
  H  H76  1  0.059500  0.423300  0.884900  1.0  0.0922
  H  H77  1  0.052800  0.138400  0.884000  1.0  0.102
  H  H78  1  0.172800  0.144600  0.827600  1.0  0.1258
  H  H79  1  0.428100  0.184100  0.675000  1.0  0.0696
  H  H80  1  0.416800  0.117800  0.719500  1.0  0.0787
  H  H81  1  0.445500  0.048700  0.642500  1.0  0.1253
  H  H82  1  0.436700  0.963100  0.582300  1.0  0.0995
  H  H83  1  0.150400  0.987600  0.593900  1.0  0.1022
  H  H84  1  0.157600  0.074600  0.654300  1.0  0.1203
  H  H85  1  0.249600  0.304400  0.686000  1.0  0.0703
  H  H86  1  0.289600  0.385000  0.712100  1.0  0.0634
  H  H87  1  0.217300  0.455500  0.651100  1.0  0.1087
  H  H88  1  0.187200  0.574600  0.597100  1.0  0.1155
  H  H89  1  0.456400  0.541200  0.541400  1.0  0.1044
  H  H90  1  0.482300  0.416100  0.594100  1.0  0.0963
  H  H91  1  0.422000  0.349400  0.760200  1.0  0.059
  H  H92  1  0.488300  0.316100  0.719800  1.0  0.0717
  H  H93  1  0.554900  0.107900  0.826900  1.0  0.1197
  H  H94  1  0.647600  0.136600  0.883100  1.0  0.1038
  H  H95  1  0.638400  0.418200  0.846900  1.0  0.0975
  H  H96  1  0.545200  0.391800  0.790000  1.0  0.1208
  H  H97  1  0.877000  0.539600  0.024900  1.0  0.0884
  H  H98  1  0.872900  0.701700  0.032100  1.0  0.1055
  H  H99  1  0.737500  0.740500  0.920900  1.0  0.1272
  H  H100  1  0.745400  0.578800  0.916900  1.0  0.0658
  H  H101  1  0.678300  0.038300  0.959000  1.0  0.0993
  H  H102  1  0.678900  0.876300  0.953600  1.0  0.1115
  H  H103  1  0.922400  0.853200  0.013000  1.0  0.1116
  H  H104  1  0.913200  0.017200  0.018700  1.0  0.0734
  H  H105  1  0.168100  0.310900  0.282600  1.0  0.0676
  H  H106  1  0.195600  0.226200  0.252900  1.0  0.0604
  H  H107  1  0.431300  0.177100  0.329300  1.0  0.1354
  H  H108  1  0.423300  0.059500  0.384900  1.0  0.0916
  H  H109  1  0.138400  0.052800  0.384000  1.0  0.1021
  H  H110  1  0.144600  0.172800  0.327600  1.0  0.1247
  H  H111  1  0.184100  0.428100  0.175000  1.0  0.07
  H  H112  1  0.117800  0.416800  0.219500  1.0  0.079
  H  H113  1  0.048700  0.445500  0.142500  1.0  0.1257
  H  H114  1  0.963100  0.436700  0.082300  1.0  0.1015
  H  H115  1  0.987600  0.150400  0.093900  1.0  0.1022
  H  H116  1  0.074600  0.157600  0.154300  1.0  0.1214
  H  H117  1  0.304400  0.249600  0.186000  1.0  0.0674
  H  H118  1  0.385000  0.289600  0.212100  1.0  0.0627
  H  H119  1  0.455500  0.217300  0.151100  1.0  0.1071
  H  H120  1  0.574600  0.187200  0.097100  1.0  0.1161
  H  H121  1  0.541200  0.456400  0.041400  1.0  0.1043
  H  H122  1  0.416100  0.482300  0.094100  1.0  0.098
  H  H123  1  0.349400  0.422000  0.260200  1.0  0.0605
  H  H124  1  0.316100  0.488300  0.219800  1.0  0.0706
  H  H125  1  0.107900  0.554900  0.326900  1.0  0.1195
  H  H126  1  0.136600  0.647600  0.383100  1.0  0.1035
  H  H127  1  0.418200  0.638400  0.346900  1.0  0.0965
  H  H128  1  0.391800  0.545200  0.290000  1.0  0.1203
  H  H129  1  0.539600  0.877000  0.524900  1.0  0.0879
  H  H130  1  0.701700  0.872900  0.532100  1.0  0.1046
  H  H131  1  0.740500  0.737500  0.420900  1.0  0.1273
  H  H132  1  0.578800  0.745400  0.416900  1.0  0.0656
  H  H133  1  0.038300  0.678300  0.459000  1.0  0.0993
  H  H134  1  0.876300  0.678900  0.453600  1.0  0.1115
  H  H135  1  0.853200  0.922400  0.513000  1.0  0.1124
  H  H136  1  0.017200  0.913200  0.518700  1.0  0.0738
  C  C137  1  0.747100  0.644700  0.774230  1.0  -0.0451
  C  C138  1  0.780600  0.717000  0.735920  1.0  0.0848
  C  C139  1  0.711800  0.813000  0.677610  1.0  0.286
  C  C140  1  0.627700  0.848100  0.659900  1.0  -0.257
  C  C141  1  0.633000  0.918800  0.627100  1.0  -0.0252
  C  C142  1  0.718800  0.960800  0.610370  1.0  -0.0706
  C  C143  1  0.802500  0.922900  0.627500  1.0  -0.0372
  C  C144  1  0.799100  0.850700  0.661000  1.0  -0.2599
  C  C145  1  0.719400  0.044400  0.576940  1.0  0.7013
  C  C146  1  0.834200  0.615000  0.799300  1.0  0.0848
  C  C147  1  0.926200  0.698400  0.846050  1.0  0.2852
  C  C148  1  0.962700  0.613900  0.867500  1.0  -0.2619
  C  C149  1  0.014900  0.619500  0.903100  1.0  -0.0182
  C  C150  1  0.036000  0.706600  0.917750  1.0  -0.1633
  C  C151  1  0.000400  0.790400  0.896200  1.0  -0.0374
  C  C152  1  0.947300  0.786100  0.860300  1.0  -0.2367
  C  C153  1  0.093100  0.711100  0.956550  1.0  0.677
  C  C154  1  0.670800  0.693000  0.803800  1.0  0.0314
  C  C155  1  0.575100  0.647100  0.871340  1.0  0.288
  C  C156  1  0.527600  0.735000  0.871100  1.0  -0.2384
  C  C157  1  0.455800  0.753000  0.903200  1.0  -0.0708
  C  C158  1  0.428700  0.680300  0.936670  1.0  -0.1382
  C  C159  1  0.476500  0.592100  0.936900  1.0  -0.0382
  C  C160  1  0.550600  0.576000  0.904900  1.0  -0.1938
  C  C161  1  0.345300  0.694700  0.969480  1.0  0.7133
  C  C162  1  0.705100  0.558300  0.756180  1.0  0.081
  C  C163  1  0.753500  0.461500  0.696480  1.0  0.2731
  C  C164  1  0.829600  0.429400  0.668900  1.0  -0.2051
  C  C165  1  0.812300  0.374300  0.635100  1.0  -0.0397
  C  C166  1  0.719600  0.351400  0.628150  1.0  -0.1288
  C  C167  1  0.643700  0.379900  0.656880  1.0  -0.0898
  C  C168  1  0.659300  0.435300  0.691040  1.0  -0.2162
  C  C169  1  0.702600  0.293200  0.590410  1.0  0.6886
  C  C170  1  0.419300  0.151300  0.496100  1.0  0.1823
  C  C171  1  0.321800  0.153400  0.491700  1.0  -0.165
  C  C172  1  0.259000  0.194200  0.522490  1.0  0.0839
  C  C173  1  0.298700  0.233700  0.557650  1.0  -0.1989
  C  C174  1  0.395800  0.228800  0.559630  1.0  0.1757
  C  C175  1  0.999400  0.271600  0.530300  1.0  0.1325
  C  C176  1  0.096600  0.271000  0.533800  1.0  -0.1786
  C  C177  1  0.154800  0.197200  0.518800  1.0  0.0992
  C  C178  1  0.110700  0.127700  0.498600  1.0  -0.2172
  C  C179  1  0.011300  0.133500  0.495500  1.0  0.1665
  C  C180  1  0.644700  0.747100  0.274230  1.0  -0.0447
  C  C181  1  0.717000  0.780600  0.235920  1.0  0.082
  C  C182  1  0.813000  0.711800  0.177610  1.0  0.2859
  C  C183  1  0.848100  0.627700  0.159900  1.0  -0.257
  C  C184  1  0.918800  0.633000  0.127100  1.0  -0.0265
  C  C185  1  0.960800  0.718800  0.110370  1.0  -0.0664
  C  C186  1  0.922900  0.802500  0.127500  1.0  -0.0409
  C  C187  1  0.850700  0.799100  0.161000  1.0  -0.2651
  C  C188  1  0.044400  0.719400  0.076940  1.0  0.6988
  C  C189  1  0.615000  0.834200  0.299300  1.0  0.0883
  C  C190  1  0.698400  0.926200  0.346050  1.0  0.2848
  C  C191  1  0.613900  0.962700  0.367500  1.0  -0.2641
  C  C192  1  0.619500  0.014900  0.403100  1.0  -0.0208
  C  C193  1  0.706600  0.036000  0.417750  1.0  -0.1646
  C  C194  1  0.790400  0.000400  0.396200  1.0  -0.032
  C  C195  1  0.786100  0.947300  0.360300  1.0  -0.2334
  C  C196  1  0.711100  0.093100  0.456550  1.0  0.675
  C  C197  1  0.693000  0.670800  0.303800  1.0  0.0306
  C  C198  1  0.647100  0.575100  0.371340  1.0  0.2892
  C  C199  1  0.735000  0.527600  0.371100  1.0  -0.2395
  C  C200  1  0.753000  0.455800  0.403200  1.0  -0.0742
  C  C201  1  0.680300  0.428700  0.436670  1.0  -0.1394
  C  C202  1  0.592100  0.476500  0.436900  1.0  -0.0393
  C  C203  1  0.576000  0.550600  0.404900  1.0  -0.1989
  C  C204  1  0.694700  0.345300  0.469480  1.0  0.7139
  C  C205  1  0.558300  0.705100  0.256180  1.0  0.0764
  C  C206  1  0.461500  0.753500  0.196480  1.0  0.2727
  C  C207  1  0.429400  0.829600  0.168900  1.0  -0.2058
  C  C208  1  0.374300  0.812300  0.135100  1.0  -0.0413
  C  C209  1  0.351400  0.719600  0.128150  1.0  -0.1282
  C  C210  1  0.379900  0.643700  0.156880  1.0  -0.0928
  C  C211  1  0.435300  0.659300  0.191040  1.0  -0.2158
  C  C212  1  0.293200  0.702600  0.090410  1.0  0.6875
  C  C213  1  0.151300  0.419300  0.996100  1.0  0.1832
  C  C214  1  0.153400  0.321800  0.991700  1.0  -0.1619
  C  C215  1  0.194200  0.259000  0.022490  1.0  0.0838
  C  C216  1  0.233700  0.298700  0.057650  1.0  -0.1971
  C  C217  1  0.228800  0.395800  0.059630  1.0  0.1749
  C  C218  1  0.271600  0.999400  0.030300  1.0  0.1342
  C  C219  1  0.271000  0.096600  0.033800  1.0  -0.1749
  C  C220  1  0.197200  0.154800  0.018800  1.0  0.0995
  C  C221  1  0.127700  0.110700  0.998600  1.0  -0.2166
  C  C222  1  0.133500  0.011300  0.995500  1.0  0.1665
  C  C223  1  0.355300  0.252900  0.725770  1.0  -0.0431
  C  C224  1  0.283000  0.219400  0.764080  1.0  0.0831
  C  C225  1  0.187000  0.288200  0.822390  1.0  0.2861
  C  C226  1  0.151900  0.372300  0.840100  1.0  -0.259
  C  C227  1  0.081200  0.367000  0.872900  1.0  -0.0253
  C  C228  1  0.039200  0.281200  0.889630  1.0  -0.0674
  C  C229  1  0.077100  0.197500  0.872500  1.0  -0.0414
  C  C230  1  0.149300  0.200900  0.839000  1.0  -0.2627
  C  C231  1  0.955600  0.280600  0.923060  1.0  0.697
  C  C232  1  0.385000  0.165800  0.700700  1.0  0.0876
  C  C233  1  0.301600  0.073800  0.653950  1.0  0.2835
  C  C234  1  0.386100  0.037300  0.632500  1.0  -0.2647
  C  C235  1  0.380500  0.985100  0.596900  1.0  -0.0222
  C  C236  1  0.293400  0.964000  0.582250  1.0  -0.1627
  C  C237  1  0.209600  0.999600  0.603800  1.0  -0.0333
  C  C238  1  0.213900  0.052700  0.639700  1.0  -0.2363
  C  C239  1  0.288900  0.906900  0.543450  1.0  0.6742
  C  C240  1  0.307000  0.329200  0.696200  1.0  0.0304
  C  C241  1  0.352900  0.424900  0.628660  1.0  0.2882
  C  C242  1  0.265000  0.472400  0.628900  1.0  -0.2399
  C  C243  1  0.247000  0.544200  0.596800  1.0  -0.0751
  C  C244  1  0.319700  0.571300  0.563330  1.0  -0.1389
  C  C245  1  0.407900  0.523500  0.563100  1.0  -0.0384
  C  C246  1  0.424000  0.449400  0.595100  1.0  -0.1974
  C  C247  1  0.305300  0.654700  0.530520  1.0  0.7131
  C  C248  1  0.441700  0.294900  0.743820  1.0  0.0768
  C  C249  1  0.538500  0.246500  0.803520  1.0  0.273
  C  C250  1  0.570600  0.170400  0.831100  1.0  -0.2055
  C  C251  1  0.625700  0.187700  0.864900  1.0  -0.0384
  C  C252  1  0.648600  0.280400  0.871850  1.0  -0.1285
  C  C253  1  0.620100  0.356300  0.843120  1.0  -0.0924
  C  C254  1  0.564700  0.340700  0.808960  1.0  -0.2173
  C  C255  1  0.706800  0.297400  0.909590  1.0  0.6878
  C  C256  1  0.848700  0.580700  0.003900  1.0  0.1826
  C  C257  1  0.846600  0.678200  0.008300  1.0  -0.161
  C  C258  1  0.805800  0.741000  0.977510  1.0  0.0847
  C  C259  1  0.766300  0.701300  0.942350  1.0  -0.1965
  C  C260  1  0.771200  0.604200  0.940370  1.0  0.1747
  C  C261  1  0.728400  0.000600  0.969700  1.0  0.1339
  C  C262  1  0.729000  0.903400  0.966200  1.0  -0.1744
  C  C263  1  0.802800  0.845200  0.981200  1.0  0.1003
  C  C264  1  0.872300  0.889300  0.001400  1.0  -0.2182
  C  C265  1  0.866500  0.988700  0.004500  1.0  0.1677
  C  C266  1  0.252900  0.355300  0.225770  1.0  -0.0434
  C  C267  1  0.219400  0.283000  0.264080  1.0  0.0849
  C  C268  1  0.288200  0.187000  0.322390  1.0  0.2856
  C  C269  1  0.372300  0.151900  0.340100  1.0  -0.2567
  C  C270  1  0.367000  0.081200  0.372900  1.0  -0.0237
  C  C271  1  0.281200  0.039200  0.389630  1.0  -0.0734
  C  C272  1  0.197500  0.077100  0.372500  1.0  -0.0372
  C  C273  1  0.200900  0.149300  0.339000  1.0  -0.2629
  C  C274  1  0.280600  0.955600  0.423060  1.0  0.6996
  C  C275  1  0.165800  0.385000  0.200700  1.0  0.0856
  C  C276  1  0.073800  0.301600  0.153950  1.0  0.2849
  C  C277  1  0.037300  0.386100  0.132500  1.0  -0.2629
  C  C278  1  0.985100  0.380500  0.096900  1.0  -0.0188
  C  C279  1  0.964000  0.293400  0.082250  1.0  -0.1636
  C  C280  1  0.999600  0.209600  0.103800  1.0  -0.0376
  C  C281  1  0.052700  0.213900  0.139700  1.0  -0.2385
  C  C282  1  0.906900  0.288900  0.043450  1.0  0.6766
  C  C283  1  0.329200  0.307000  0.196200  1.0  0.0286
  C  C284  1  0.424900  0.352900  0.128660  1.0  0.2878
  C  C285  1  0.472400  0.265000  0.128900  1.0  -0.2434
  C  C286  1  0.544200  0.247000  0.096800  1.0  -0.0711
  C  C287  1  0.571300  0.319700  0.063330  1.0  -0.1388
  C  C288  1  0.523500  0.407900  0.063100  1.0  -0.039
  C  C289  1  0.449400  0.424000  0.095100  1.0  -0.1943
  C  C290  1  0.654700  0.305300  0.030520  1.0  0.7131
  C  C291  1  0.294900  0.441700  0.243820  1.0  0.0806
  C  C292  1  0.246500  0.538500  0.303520  1.0  0.2734
  C  C293  1  0.170400  0.570600  0.331100  1.0  -0.2032
  C  C294  1  0.187700  0.625700  0.364900  1.0  -0.0411
  C  C295  1  0.280400  0.648600  0.371850  1.0  -0.1288
  C  C296  1  0.356300  0.620100  0.343120  1.0  -0.0893
  C  C297  1  0.340700  0.564700  0.308960  1.0  -0.2177
  C  C298  1  0.297400  0.706800  0.409590  1.0  0.6894
  C  C299  1  0.580700  0.848700  0.503900  1.0  0.1819
  C  C300  1  0.678200  0.846600  0.508300  1.0  -0.1637
  C  C301  1  0.741000  0.805800  0.477510  1.0  0.0837
  C  C302  1  0.701300  0.766300  0.442350  1.0  -0.1987
  C  C303  1  0.604200  0.771200  0.440370  1.0  0.1741
  C  C304  1  0.000600  0.728400  0.469700  1.0  0.1332
  C  C305  1  0.903400  0.729000  0.466200  1.0  -0.177
  C  C306  1  0.845200  0.802800  0.481200  1.0  0.0998
  C  C307  1  0.889300  0.872300  0.501400  1.0  -0.2186
  C  C308  1  0.988700  0.866500  0.504500  1.0  0.1673
  N  N309  1  0.456600  0.189000  0.529840  1.0  -0.3343
  N  N310  1  0.957100  0.201300  0.511790  1.0  -0.3152
  N  N311  1  0.189000  0.456600  0.029840  1.0  -0.3355
  N  N312  1  0.201300  0.957100  0.011790  1.0  -0.3162
  N  N313  1  0.811000  0.543400  0.970160  1.0  -0.335
  N  N314  1  0.798700  0.042900  0.988210  1.0  -0.3169
  N  N315  1  0.543400  0.811000  0.470160  1.0  -0.3349
  N  N316  1  0.042900  0.798700  0.488210  1.0  -0.3173
  O  O317  1  0.700200  0.741600  0.711060  1.0  -0.273
  O  O318  1  0.641000  0.073200  0.564550  1.0  -0.5817
  O  O319  1  0.798900  0.080500  0.562730  1.0  -0.5886
  O  O320  1  0.870800  0.702000  0.812160  1.0  -0.27
  O  O321  1  0.128700  0.634900  0.973120  1.0  -0.5943
  O  O322  1  0.103200  0.793400  0.969890  1.0  -0.5803
  O  O323  1  0.645700  0.622900  0.841000  1.0  -0.266
  O  O324  1  0.307300  0.777100  0.970080  1.0  -0.5968
  O  O325  1  0.320300  0.623500  0.995050  1.0  -0.6049
  O  O326  1  0.778700  0.517300  0.727860  1.0  -0.2743
  O  O327  1  0.775300  0.279300  0.563920  1.0  -0.6028
  O  O328  1  0.619400  0.263800  0.586850  1.0  -0.5669
  O  O329  1  0.741600  0.700200  0.211060  1.0  -0.2705
  O  O330  1  0.073200  0.641000  0.064550  1.0  -0.5837
  O  O331  1  0.080500  0.798900  0.062730  1.0  -0.5891
  O  O332  1  0.702000  0.870800  0.312160  1.0  -0.2704
  O  O333  1  0.634900  0.128700  0.473120  1.0  -0.5939
  O  O334  1  0.793400  0.103200  0.469890  1.0  -0.5802
  O  O335  1  0.622900  0.645700  0.341000  1.0  -0.267
  O  O336  1  0.777100  0.307300  0.470080  1.0  -0.5943
  O  O337  1  0.623500  0.320300  0.495050  1.0  -0.6042
  O  O338  1  0.517300  0.778700  0.227860  1.0  -0.2712
  O  O339  1  0.279300  0.775300  0.063920  1.0  -0.6028
  O  O340  1  0.263800  0.619400  0.086850  1.0  -0.5685
  O  O341  1  0.258400  0.299800  0.788940  1.0  -0.2699
  O  O342  1  0.926800  0.359000  0.935450  1.0  -0.5831
  O  O343  1  0.919500  0.201100  0.937270  1.0  -0.589
  O  O344  1  0.298000  0.129200  0.687840  1.0  -0.2697
  O  O345  1  0.365100  0.871300  0.526880  1.0  -0.5948
  O  O346  1  0.206600  0.896800  0.530110  1.0  -0.5795
  O  O347  1  0.377100  0.354300  0.659000  1.0  -0.2674
  O  O348  1  0.222900  0.692700  0.529920  1.0  -0.5945
  O  O349  1  0.376500  0.679700  0.504950  1.0  -0.6042
  O  O350  1  0.482700  0.221300  0.772140  1.0  -0.272
  O  O351  1  0.720700  0.224700  0.936080  1.0  -0.603
  O  O352  1  0.736200  0.380600  0.913150  1.0  -0.5687
  O  O353  1  0.299800  0.258400  0.288940  1.0  -0.2733
  O  O354  1  0.359000  0.926800  0.435450  1.0  -0.5823
  O  O355  1  0.201100  0.919500  0.437270  1.0  -0.5881
  O  O356  1  0.129200  0.298000  0.187840  1.0  -0.268
  O  O357  1  0.871300  0.365100  0.026880  1.0  -0.5952
  O  O358  1  0.896800  0.206600  0.030110  1.0  -0.5808
  O  O359  1  0.354300  0.377100  0.159000  1.0  -0.2648
  O  O360  1  0.692700  0.222900  0.029920  1.0  -0.5956
  O  O361  1  0.679700  0.376500  0.004950  1.0  -0.606
  O  O362  1  0.221300  0.482700  0.272140  1.0  -0.2737
  O  O363  1  0.224700  0.720700  0.436080  1.0  -0.6028
  O  O364  1  0.380600  0.736200  0.413150  1.0  -0.5661
