# generated using pymatgen
data_Co3H22C38(NO3)4
_symmetry_space_group_name_H-M   'P 1'
_cell_length_a   11.05800000
_cell_length_b   12.03400000
_cell_length_c   16.16780000
_cell_angle_alpha   99.94670000
_cell_angle_beta   109.99700000
_cell_angle_gamma   90.00000000
_symmetry_Int_Tables_number   1
_chemical_formula_structural   Co3H22C38(NO3)4
_chemical_formula_sum   'Co6 H44 C76 N8 O24'
_cell_volume   1987.32052318
_cell_formula_units_Z   2
loop_
 _symmetry_equiv_pos_site_id
 _symmetry_equiv_pos_as_xyz
  1  'x, y, z'
loop_
 _atom_site_type_symbol
 _atom_site_label
 _atom_site_symmetry_multiplicity
 _atom_site_fract_x
 _atom_site_fract_y
 _atom_site_fract_z
 _atom_site_occupancy
 _atom_site_charge
  Co  Co1  1  0.204750  0.528440  0.225720  1.0  0.9143
  Co  Co2  1  0.979030  0.971560  0.774280  1.0  0.9128
  Co  Co3  1  0.795250  0.471560  0.774280  1.0  0.9143
  Co  Co4  1  0.020970  0.028440  0.225720  1.0  0.9152
  Co  Co5  1  0.052440  0.750000  0.000000  1.0  1.0848
  Co  Co6  1  0.947560  0.250000  0.000000  1.0  1.0857
  H  H7  1  0.747900  0.405300  0.178200  1.0  0.0978
  H  H8  1  0.658200  0.523800  0.265600  1.0  0.1244
  H  H9  1  0.719800  0.715100  0.301800  1.0  0.1053
  H  H10  1  0.374900  0.683500  0.168600  1.0  0.0749
  H  H11  1  0.502600  0.671700  0.083600  1.0  0.1247
  H  H12  1  0.365500  0.352000  0.982200  1.0  0.1196
  H  H13  1  0.240400  0.372500  0.070600  1.0  0.0765
  H  H14  1  0.094500  0.355100  0.302000  1.0  0.079
  H  H15  1  0.008500  0.339200  0.409200  1.0  0.1292
  H  H16  1  0.056400  0.673200  0.487200  1.0  0.1326
  H  H17  1  0.134100  0.680700  0.373600  1.0  0.0754
  H  H18  1  0.569700  0.094700  0.821800  1.0  0.0974
  H  H19  1  0.392600  0.976200  0.734400  1.0  0.1243
  H  H20  1  0.418000  0.784900  0.698200  1.0  0.1048
  H  H21  1  0.206300  0.816500  0.831400  1.0  0.0753
  H  H22  1  0.419000  0.828300  0.916400  1.0  0.1245
  H  H23  1  0.383300  0.148000  0.017800  1.0  0.121
  H  H24  1  0.169800  0.127500  0.929400  1.0  0.0761
  H  H25  1  0.792500  0.144900  0.698000  1.0  0.0798
  H  H26  1  0.599300  0.160800  0.590800  1.0  0.1276
  H  H27  1  0.569200  0.826800  0.512800  1.0  0.1335
  H  H28  1  0.760500  0.819300  0.626400  1.0  0.0753
  H  H29  1  0.252100  0.594700  0.821800  1.0  0.0972
  H  H30  1  0.341800  0.476200  0.734400  1.0  0.1231
  H  H31  1  0.280200  0.284900  0.698200  1.0  0.1059
  H  H32  1  0.625100  0.316500  0.831400  1.0  0.0751
  H  H33  1  0.497400  0.328300  0.916400  1.0  0.1243
  H  H34  1  0.634500  0.648000  0.017800  1.0  0.1209
  H  H35  1  0.759600  0.627500  0.929400  1.0  0.0762
  H  H36  1  0.905500  0.644900  0.698000  1.0  0.0792
  H  H37  1  0.991500  0.660800  0.590800  1.0  0.129
  H  H38  1  0.943600  0.326800  0.512800  1.0  0.1318
  H  H39  1  0.865900  0.319300  0.626400  1.0  0.0744
  H  H40  1  0.430300  0.905300  0.178200  1.0  0.0976
  H  H41  1  0.607400  0.023800  0.265600  1.0  0.1241
  H  H42  1  0.582000  0.215100  0.301800  1.0  0.1052
  H  H43  1  0.793700  0.183500  0.168600  1.0  0.0759
  H  H44  1  0.581000  0.171700  0.083600  1.0  0.124
  H  H45  1  0.616700  0.852000  0.982200  1.0  0.1201
  H  H46  1  0.830200  0.872500  0.070600  1.0  0.0764
  H  H47  1  0.207500  0.855100  0.302000  1.0  0.0794
  H  H48  1  0.400700  0.839200  0.409200  1.0  0.1282
  H  H49  1  0.430800  0.173200  0.487200  1.0  0.1348
  H  H50  1  0.239500  0.180700  0.373600  1.0  0.0753
  C  C51  1  0.907700  0.636700  0.188200  1.0  -0.0473
  C  C52  1  0.866400  0.521500  0.165200  1.0  -0.1557
  C  C53  1  0.773900  0.481800  0.194000  1.0  -0.0274
  C  C54  1  0.719300  0.552100  0.245600  1.0  -0.1222
  C  C55  1  0.756900  0.666667  0.267200  1.0  -0.021
  C  C56  1  0.848100  0.709900  0.238800  1.0  -0.1476
  C  C57  1  0.010000  0.678200  0.155000  1.0  0.6937
  C  C58  1  0.925500  0.438700  0.112200  1.0  0.6702
  C  C59  1  0.884800  0.834900  0.264600  1.0  0.6632
  C  C60  1  0.374600  0.614800  0.131800  1.0  0.1739
  C  C61  1  0.452400  0.608400  0.081400  1.0  -0.1767
  C  C62  1  0.456000  0.505600  0.025800  1.0  0.0789
  C  C63  1  0.371900  0.419900  0.021400  1.0  -0.1868
  C  C64  1  0.295700  0.433100  0.074600  1.0  0.1975
  C  C65  1  0.087200  0.420300  0.339800  1.0  0.1926
  C  C66  1  0.036800  0.410200  0.405000  1.0  -0.1939
  C  C67  1  0.027600  0.504000  0.464600  1.0  0.0899
  C  C68  1  0.063800  0.606600  0.450800  1.0  -0.1819
  C  C69  1  0.111300  0.610400  0.382400  1.0  0.18
  C  C70  1  0.719500  0.863300  0.811800  1.0  -0.0473
  C  C71  1  0.701200  0.978500  0.834800  1.0  -0.157
  C  C72  1  0.579900  0.018200  0.806000  1.0  -0.0293
  C  C73  1  0.473700  0.947900  0.754400  1.0  -0.1267
  C  C74  1  0.489700  0.833400  0.732800  1.0  -0.0219
  C  C75  1  0.609300  0.790100  0.761200  1.0  -0.1469
  C  C76  1  0.855000  0.821800  0.845000  1.0  0.6938
  C  C77  1  0.813300  0.061300  0.887800  1.0  0.6666
  C  C78  1  0.620200  0.665100  0.735400  1.0  0.6603
  C  C79  1  0.242800  0.885200  0.868200  1.0  0.1722
  C  C80  1  0.371000  0.891600  0.918600  1.0  -0.1793
  C  C81  1  0.430200  0.994400  0.974200  1.0  0.0791
  C  C82  1  0.350500  0.080100  0.978600  1.0  -0.1877
  C  C83  1  0.221100  0.066900  0.925400  1.0  0.1948
  C  C84  1  0.747400  0.079700  0.660200  1.0  0.1908
  C  C85  1  0.631800  0.089800  0.595000  1.0  -0.1918
  C  C86  1  0.563000  0.996000  0.535400  1.0  0.0924
  C  C87  1  0.613000  0.893400  0.549200  1.0  -0.1802
  C  C88  1  0.728900  0.889600  0.617600  1.0  0.1773
  C  C89  1  0.092300  0.363300  0.811800  1.0  -0.0473
  C  C90  1  0.133600  0.478500  0.834800  1.0  -0.1557
  C  C91  1  0.226100  0.518200  0.806000  1.0  -0.0263
  C  C92  1  0.280700  0.447900  0.754400  1.0  -0.122
  C  C93  1  0.243100  0.333400  0.732800  1.0  -0.0235
  C  C94  1  0.151900  0.290100  0.761200  1.0  -0.1455
  C  C95  1  0.990000  0.321800  0.845000  1.0  0.6938
  C  C96  1  0.074500  0.561300  0.887800  1.0  0.6694
  C  C97  1  0.115200  0.165100  0.735400  1.0  0.6617
  C  C98  1  0.625400  0.385200  0.868200  1.0  0.1742
  C  C99  1  0.547600  0.391600  0.918600  1.0  -0.1767
  C  C100  1  0.544000  0.494400  0.974200  1.0  0.0796
  C  C101  1  0.628100  0.580100  0.978600  1.0  -0.1869
  C  C102  1  0.704300  0.566900  0.925400  1.0  0.1961
  C  C103  1  0.912800  0.579700  0.660200  1.0  0.1925
  C  C104  1  0.963200  0.589800  0.595000  1.0  -0.1938
  C  C105  1  0.972400  0.496000  0.535400  1.0  0.0902
  C  C106  1  0.936200  0.393400  0.549200  1.0  -0.1796
  C  C107  1  0.888700  0.389600  0.617600  1.0  0.1802
  C  C108  1  0.280500  0.136700  0.188200  1.0  -0.0474
  C  C109  1  0.298800  0.021500  0.165200  1.0  -0.1577
  C  C110  1  0.420100  0.981800  0.194000  1.0  -0.0286
  C  C111  1  0.526300  0.052100  0.245600  1.0  -0.1267
  C  C112  1  0.510300  0.166600  0.267200  1.0  -0.0213
  C  C113  1  0.390700  0.209900  0.238800  1.0  -0.1459
  C  C114  1  0.145000  0.178200  0.155000  1.0  0.6939
  C  C115  1  0.186700  0.938700  0.112200  1.0  0.6662
  C  C116  1  0.379800  0.334900  0.264600  1.0  0.6623
  C  C117  1  0.757200  0.114800  0.131800  1.0  0.1722
  C  C118  1  0.629000  0.108400  0.081400  1.0  -0.1782
  C  C119  1  0.569800  0.005600  0.025800  1.0  0.0801
  C  C120  1  0.649500  0.919900  0.021400  1.0  -0.1882
  C  C121  1  0.778900  0.933100  0.074600  1.0  0.196
  C  C122  1  0.252600  0.920300  0.339800  1.0  0.1907
  C  C123  1  0.368200  0.910200  0.405000  1.0  -0.1942
  C  C124  1  0.437000  0.004000  0.464600  1.0  0.0923
  C  C125  1  0.387000  0.106600  0.450800  1.0  -0.1808
  C  C126  1  0.271100  0.110400  0.382400  1.0  0.1771
  N  N127  1  0.298300  0.528400  0.131800  1.0  -0.3409
  N  N128  1  0.126100  0.519000  0.328800  1.0  -0.3664
  N  N129  1  0.166500  0.971600  0.868200  1.0  -0.3425
  N  N130  1  0.797300  0.981000  0.671200  1.0  -0.3656
  N  N131  1  0.701700  0.471600  0.868200  1.0  -0.3468
  N  N132  1  0.873900  0.481000  0.671200  1.0  -0.3652
  N  N133  1  0.833500  0.028400  0.131800  1.0  -0.3393
  N  N134  1  0.202700  0.019000  0.328800  1.0  -0.3664
  O  O135  1  0.965640  0.699200  0.076880  1.0  -0.5843
  O  O136  1  0.125980  0.681200  0.201760  1.0  -0.5955
  O  O137  1  0.970330  0.868900  0.238260  1.0  -0.589
  O  O138  1  0.829900  0.896200  0.308600  1.0  -0.6117
  O  O139  1  0.042210  0.450100  0.121420  1.0  -0.5856
  O  O140  1  0.853400  0.356000  0.059600  1.0  -0.5876
  O  O141  1  0.888760  0.800800  0.923120  1.0  -0.585
  O  O142  1  0.924220  0.818800  0.798240  1.0  -0.5976
  O  O143  1  0.732070  0.631100  0.761740  1.0  -0.5901
  O  O144  1  0.521300  0.603800  0.691400  1.0  -0.6149
  O  O145  1  0.920790  0.049900  0.878580  1.0  -0.5852
  O  O146  1  0.793800  0.144000  0.940400  1.0  -0.587
  O  O147  1  0.034360  0.300800  0.923120  1.0  -0.5834
  O  O148  1  0.874020  0.318800  0.798240  1.0  -0.5963
  O  O149  1  0.029670  0.131100  0.761740  1.0  -0.5893
  O  O150  1  0.170100  0.103800  0.691400  1.0  -0.6119
  O  O151  1  0.957790  0.549900  0.878580  1.0  -0.5889
  O  O152  1  0.146600  0.644000  0.940400  1.0  -0.5894
  O  O153  1  0.111240  0.199200  0.076880  1.0  -0.5849
  O  O154  1  0.075780  0.181200  0.201760  1.0  -0.5975
  O  O155  1  0.267930  0.368900  0.238260  1.0  -0.5888
  O  O156  1  0.478700  0.396200  0.308600  1.0  -0.6127
  O  O157  1  0.079210  0.950100  0.121420  1.0  -0.5883
  O  O158  1  0.206200  0.856000  0.059600  1.0  -0.5863
