# generated using pymatgen
data_CdH10C11NO4
_symmetry_space_group_name_H-M   'P 1'
_cell_length_a   9.37400000
_cell_length_b   21.31600000
_cell_length_c   17.13000000
_cell_angle_alpha   90.00000000
_cell_angle_beta   118.33400000
_cell_angle_gamma   90.00000000
_symmetry_Int_Tables_number   1
_chemical_formula_structural   CdH10C11NO4
_chemical_formula_sum   'Cd8 H80 C88 N8 O32'
_cell_volume   3012.77951418
_cell_formula_units_Z   8
loop_
 _symmetry_equiv_pos_site_id
 _symmetry_equiv_pos_as_xyz
  1  'x, y, z'
loop_
 _atom_site_type_symbol
 _atom_site_label
 _atom_site_symmetry_multiplicity
 _atom_site_fract_x
 _atom_site_fract_y
 _atom_site_fract_z
 _atom_site_occupancy
 _atom_site_charge
  Cd  Cd1  1  0.722370  0.187010  0.388810  1.0  0.9607
  Cd  Cd2  1  0.293080  0.992530  0.090290  1.0  0.8552
  Cd  Cd3  1  0.277630  0.687010  0.111190  1.0  0.9611
  Cd  Cd4  1  0.706920  0.492530  0.409710  1.0  0.857
  Cd  Cd5  1  0.277630  0.812990  0.611190  1.0  0.9609
  Cd  Cd6  1  0.706920  0.007470  0.909710  1.0  0.8571
  Cd  Cd7  1  0.722370  0.312990  0.888810  1.0  0.9606
  Cd  Cd8  1  0.293080  0.507470  0.590290  1.0  0.8552
  H  H9  1  0.384500  0.774300  0.282600  1.0  0.0667
  H  H10  1  0.954200  0.747900  0.090000  1.0  0.0792
  H  H11  1  0.627200  0.050300  0.310800  1.0  0.0803
  H  H12  1  0.732200  0.958500  0.293900  1.0  0.1226
  H  H13  1  0.175800  0.025100  0.450200  1.0  0.1156
  H  H14  1  0.055200  0.121600  0.461200  1.0  0.1061
  H  H15  1  0.156800  0.918900  0.393800  1.0  0.0994
  H  H16  1  0.998300  0.883800  0.377500  1.0  0.0963
  H  H17  1  0.034600  0.943800  0.246500  1.0  0.1085
  H  H18  1  0.885600  0.903800  0.232700  1.0  0.0905
  H  H19  1  0.854100  0.829400  0.138600  1.0  0.1424
  H  H20  1  0.299500  0.852600  0.338800  1.0  0.1314
  H  H21  1  0.932200  0.234500  0.172600  1.0  0.0941
  H  H22  1  0.176200  0.248900  0.181800  1.0  0.0885
  H  H23  1  0.159900  0.187300  0.128000  1.0  0.0948
  H  H24  1  0.173400  0.190000  0.296100  1.0  0.0982
  H  H25  1  0.176700  0.083000  0.299200  1.0  0.1071
  H  H26  1  0.902700  0.066700  0.190000  1.0  0.115
  H  H27  1  0.926400  0.126200  0.248300  1.0  0.0918
  H  H28  1  0.755700  0.158700  0.113000  1.0  0.0963
  H  H29  1  0.615500  0.274300  0.217400  1.0  0.0655
  H  H30  1  0.045800  0.247900  0.410000  1.0  0.0796
  H  H31  1  0.372800  0.550300  0.189200  1.0  0.0799
  H  H32  1  0.267800  0.458500  0.206100  1.0  0.1226
  H  H33  1  0.824200  0.525100  0.049800  1.0  0.1149
  H  H34  1  0.944800  0.621600  0.038800  1.0  0.1059
  H  H35  1  0.843200  0.418900  0.106200  1.0  0.1007
  H  H36  1  0.001700  0.383800  0.122500  1.0  0.0962
  H  H37  1  0.965400  0.443800  0.253500  1.0  0.107
  H  H38  1  0.114400  0.403800  0.267300  1.0  0.0923
  H  H39  1  0.145900  0.329400  0.361400  1.0  0.1423
  H  H40  1  0.700500  0.352600  0.161200  1.0  0.1324
  H  H41  1  0.067800  0.734500  0.327400  1.0  0.0934
  H  H42  1  0.823800  0.748900  0.318200  1.0  0.0882
  H  H43  1  0.840100  0.687300  0.372000  1.0  0.0952
  H  H44  1  0.826600  0.690000  0.203900  1.0  0.0981
  H  H45  1  0.823300  0.583000  0.200800  1.0  0.107
  H  H46  1  0.097300  0.566700  0.310000  1.0  0.1153
  H  H47  1  0.073600  0.626200  0.251700  1.0  0.0939
  H  H48  1  0.244300  0.658700  0.387000  1.0  0.0949
  H  H49  1  0.615500  0.225700  0.717400  1.0  0.0651
  H  H50  1  0.045800  0.252100  0.910000  1.0  0.0796
  H  H51  1  0.372800  0.949700  0.689200  1.0  0.0798
  H  H52  1  0.267800  0.041500  0.706100  1.0  0.1226
  H  H53  1  0.824200  0.974900  0.549800  1.0  0.1149
  H  H54  1  0.944800  0.878400  0.538800  1.0  0.1051
  H  H55  1  0.843200  0.081100  0.606200  1.0  0.1007
  H  H56  1  0.001700  0.116200  0.622500  1.0  0.0971
  H  H57  1  0.965400  0.056200  0.753500  1.0  0.1079
  H  H58  1  0.114400  0.096200  0.767300  1.0  0.0924
  H  H59  1  0.145900  0.170600  0.861400  1.0  0.1428
  H  H60  1  0.700500  0.147400  0.661200  1.0  0.1325
  H  H61  1  0.067800  0.765500  0.827400  1.0  0.0935
  H  H62  1  0.823800  0.751100  0.818200  1.0  0.0893
  H  H63  1  0.840100  0.812700  0.872000  1.0  0.0946
  H  H64  1  0.826600  0.810000  0.703900  1.0  0.0985
  H  H65  1  0.823300  0.917000  0.700800  1.0  0.1068
  H  H66  1  0.097300  0.933300  0.810000  1.0  0.1153
  H  H67  1  0.073600  0.873800  0.751700  1.0  0.0939
  H  H68  1  0.244300  0.841300  0.887000  1.0  0.095
  H  H69  1  0.384500  0.725700  0.782600  1.0  0.0669
  H  H70  1  0.954200  0.752100  0.590000  1.0  0.0795
  H  H71  1  0.627200  0.449700  0.810800  1.0  0.0807
  H  H72  1  0.732200  0.541500  0.793900  1.0  0.1232
  H  H73  1  0.175800  0.474900  0.950200  1.0  0.1154
  H  H74  1  0.055200  0.378400  0.961200  1.0  0.1063
  H  H75  1  0.156800  0.581100  0.893800  1.0  0.0995
  H  H76  1  0.998300  0.616200  0.877500  1.0  0.0964
  H  H77  1  0.034600  0.556200  0.746500  1.0  0.1079
  H  H78  1  0.885600  0.596200  0.732700  1.0  0.0904
  H  H79  1  0.854100  0.670600  0.638600  1.0  0.1425
  H  H80  1  0.299500  0.647400  0.838800  1.0  0.1319
  H  H81  1  0.932200  0.265500  0.672600  1.0  0.0947
  H  H82  1  0.176200  0.251100  0.681800  1.0  0.0894
  H  H83  1  0.159900  0.312700  0.628000  1.0  0.0945
  H  H84  1  0.173400  0.310000  0.796100  1.0  0.098
  H  H85  1  0.176700  0.417000  0.799200  1.0  0.1068
  H  H86  1  0.902700  0.433300  0.690000  1.0  0.1147
  H  H87  1  0.926400  0.373800  0.748300  1.0  0.0921
  H  H88  1  0.755700  0.341300  0.613000  1.0  0.0968
  C  C89  1  0.275700  0.785600  0.252500  1.0  0.1892
  C  C90  1  0.025200  0.770400  0.140000  1.0  0.158
  C  C91  1  0.739200  0.045200  0.339500  1.0  0.1879
  C  C92  1  0.801800  0.989900  0.329200  1.0  -0.1902
  C  C93  1  0.970500  0.979900  0.371300  1.0  0.1196
  C  C94  1  0.063600  0.029100  0.420900  1.0  -0.0928
  C  C95  1  0.990600  0.088100  0.428800  1.0  0.1182
  C  C96  1  0.040000  0.918300  0.357300  1.0  -0.1744
  C  C97  1  0.002700  0.906700  0.267000  1.0  -0.1696
  C  C98  1  0.070200  0.852000  0.242100  1.0  0.1034
  C  C99  1  0.963700  0.819200  0.168400  1.0  -0.2582
  C  C100  1  0.226900  0.833100  0.286200  1.0  -0.2394
  C  C101  1  0.872900  0.249900  0.044700  1.0  0.6727
  C  C102  1  0.951500  0.210600  0.129600  1.0  -0.1393
  C  C103  1  0.131400  0.206800  0.169900  1.0  -0.1018
  C  C104  1  0.206800  0.169000  0.256500  1.0  -0.1445
  C  C105  1  0.393200  0.169100  0.305300  1.0  0.7123
  C  C106  1  0.134200  0.103200  0.241000  1.0  -0.1722
  C  C107  1  0.948600  0.108600  0.203000  1.0  -0.1885
  C  C108  1  0.862600  0.148300  0.119400  1.0  -0.1515
  C  C109  1  0.187200  0.062500  0.184200  1.0  0.6841
  C  C110  1  0.833600  0.111100  0.037600  1.0  0.6544
  C  C111  1  0.724300  0.285600  0.247500  1.0  0.192
  C  C112  1  0.974800  0.270400  0.360000  1.0  0.1566
  C  C113  1  0.260800  0.545200  0.160500  1.0  0.1912
  C  C114  1  0.198200  0.489900  0.170800  1.0  -0.1893
  C  C115  1  0.029500  0.479900  0.128700  1.0  0.1208
  C  C116  1  0.936400  0.529100  0.079100  1.0  -0.0937
  C  C117  1  0.009400  0.588100  0.071200  1.0  0.1177
  C  C118  1  0.960000  0.418300  0.142700  1.0  -0.1733
  C  C119  1  0.997300  0.406700  0.233000  1.0  -0.1678
  C  C120  1  0.929800  0.352000  0.257900  1.0  0.1011
  C  C121  1  0.036300  0.319200  0.331600  1.0  -0.2579
  C  C122  1  0.773100  0.333100  0.213800  1.0  -0.2397
  C  C123  1  0.127100  0.749900  0.455300  1.0  0.6731
  C  C124  1  0.048500  0.710600  0.370400  1.0  -0.1386
  C  C125  1  0.868600  0.706800  0.330100  1.0  -0.1015
  C  C126  1  0.793200  0.669000  0.243500  1.0  -0.1465
  C  C127  1  0.606800  0.669100  0.194700  1.0  0.7136
  C  C128  1  0.865800  0.603200  0.259000  1.0  -0.1723
  C  C129  1  0.051400  0.608600  0.297000  1.0  -0.1866
  C  C130  1  0.137400  0.648300  0.380600  1.0  -0.1503
  C  C131  1  0.812800  0.562500  0.315800  1.0  0.6827
  C  C132  1  0.166400  0.611100  0.462400  1.0  0.6556
  C  C133  1  0.724300  0.214400  0.747500  1.0  0.1917
  C  C134  1  0.974800  0.229600  0.860000  1.0  0.1563
  C  C135  1  0.260800  0.954800  0.660500  1.0  0.1907
  C  C136  1  0.198200  0.010100  0.670800  1.0  -0.1891
  C  C137  1  0.029500  0.020100  0.628700  1.0  0.1209
  C  C138  1  0.936400  0.970900  0.579100  1.0  -0.0939
  C  C139  1  0.009400  0.911900  0.571200  1.0  0.1182
  C  C140  1  0.960000  0.081700  0.642700  1.0  -0.1726
  C  C141  1  0.997300  0.093300  0.733000  1.0  -0.1682
  C  C142  1  0.929800  0.148000  0.757900  1.0  0.1008
  C  C143  1  0.036300  0.180800  0.831600  1.0  -0.2575
  C  C144  1  0.773100  0.166900  0.713800  1.0  -0.2386
  C  C145  1  0.127100  0.750100  0.955300  1.0  0.6735
  C  C146  1  0.048500  0.789400  0.870400  1.0  -0.1379
  C  C147  1  0.868600  0.793200  0.830100  1.0  -0.1014
  C  C148  1  0.793200  0.831000  0.743500  1.0  -0.1465
  C  C149  1  0.606800  0.830900  0.694700  1.0  0.7136
  C  C150  1  0.865800  0.896800  0.759000  1.0  -0.1712
  C  C151  1  0.051400  0.891400  0.797000  1.0  -0.1859
  C  C152  1  0.137400  0.851700  0.880600  1.0  -0.1502
  C  C153  1  0.812800  0.937500  0.815800  1.0  0.6849
  C  C154  1  0.166400  0.888900  0.962400  1.0  0.6548
  C  C155  1  0.275700  0.714400  0.752500  1.0  0.1897
  C  C156  1  0.025200  0.729600  0.640000  1.0  0.1581
  C  C157  1  0.739200  0.454800  0.839500  1.0  0.1881
  C  C158  1  0.801800  0.510100  0.829200  1.0  -0.1909
  C  C159  1  0.970500  0.520100  0.871300  1.0  0.1195
  C  C160  1  0.063600  0.470900  0.920900  1.0  -0.0931
  C  C161  1  0.990600  0.411900  0.928800  1.0  0.1192
  C  C162  1  0.040000  0.581700  0.857300  1.0  -0.1731
  C  C163  1  0.002700  0.593300  0.767000  1.0  -0.1696
  C  C164  1  0.070200  0.648000  0.742100  1.0  0.103
  C  C165  1  0.963700  0.680800  0.668400  1.0  -0.2585
  C  C166  1  0.226900  0.666900  0.786200  1.0  -0.2399
  C  C167  1  0.872900  0.250100  0.544700  1.0  0.6722
  C  C168  1  0.951500  0.289400  0.629600  1.0  -0.1397
  C  C169  1  0.131400  0.293200  0.669900  1.0  -0.104
  C  C170  1  0.206800  0.331000  0.756500  1.0  -0.1444
  C  C171  1  0.393200  0.330900  0.805300  1.0  0.7127
  C  C172  1  0.134200  0.396800  0.741000  1.0  -0.1715
  C  C173  1  0.948600  0.391400  0.703000  1.0  -0.1874
  C  C174  1  0.862600  0.351700  0.619400  1.0  -0.1514
  C  C175  1  0.187200  0.437500  0.684200  1.0  0.6838
  C  C176  1  0.833600  0.388900  0.537600  1.0  0.654
  N  N177  1  0.181300  0.754100  0.180700  1.0  -0.3464
  N  N178  1  0.831800  0.092400  0.389100  1.0  -0.323
  N  N179  1  0.818700  0.254100  0.319300  1.0  -0.3443
  N  N180  1  0.168200  0.592400  0.110900  1.0  -0.3223
  N  N181  1  0.818700  0.245900  0.819300  1.0  -0.3459
  N  N182  1  0.168200  0.907600  0.610900  1.0  -0.3221
  N  N183  1  0.181300  0.745900  0.680700  1.0  -0.3466
  N  N184  1  0.831800  0.407600  0.889100  1.0  -0.3235
  O  O185  1  0.470200  0.133500  0.367700  1.0  -0.6026
  O  O186  1  0.464400  0.210400  0.284200  1.0  -0.6082
  O  O187  1  0.312100  0.077700  0.179600  1.0  -0.6157
  O  O188  1  0.108700  0.013200  0.147800  1.0  -0.6016
  O  O189  1  0.910100  0.118100  0.997200  1.0  -0.5113
  O  O190  1  0.716800  0.070700  0.013200  1.0  -0.6347
  O  O191  1  0.961400  0.285100  0.027600  1.0  -0.5919
  O  O192  1  0.721200  0.248400  0.996500  1.0  -0.5964
  O  O193  1  0.529800  0.633500  0.132300  1.0  -0.6032
  O  O194  1  0.535600  0.710400  0.215800  1.0  -0.6084
  O  O195  1  0.687900  0.577700  0.320400  1.0  -0.6139
  O  O196  1  0.891300  0.513200  0.352200  1.0  -0.6009
  O  O197  1  0.089900  0.618100  0.502800  1.0  -0.5128
  O  O198  1  0.283200  0.570700  0.486800  1.0  -0.6327
  O  O199  1  0.038600  0.785100  0.472400  1.0  -0.5921
  O  O200  1  0.278800  0.748400  0.503500  1.0  -0.5906
  O  O201  1  0.529800  0.866500  0.632300  1.0  -0.6033
  O  O202  1  0.535600  0.789600  0.715800  1.0  -0.6074
  O  O203  1  0.687900  0.922300  0.820400  1.0  -0.6142
  O  O204  1  0.891300  0.986800  0.852200  1.0  -0.602
  O  O205  1  0.089900  0.881900  0.002800  1.0  -0.5125
  O  O206  1  0.283200  0.929300  0.986800  1.0  -0.6317
  O  O207  1  0.038600  0.714900  0.972400  1.0  -0.5911
  O  O208  1  0.278800  0.751600  0.003500  1.0  -0.5904
  O  O209  1  0.470200  0.366500  0.867700  1.0  -0.604
  O  O210  1  0.464400  0.289600  0.784200  1.0  -0.6077
  O  O211  1  0.312100  0.422300  0.679600  1.0  -0.615
  O  O212  1  0.108700  0.486800  0.647800  1.0  -0.6009
  O  O213  1  0.910100  0.381900  0.497200  1.0  -0.5112
  O  O214  1  0.716800  0.429300  0.513200  1.0  -0.6355
  O  O215  1  0.961400  0.214900  0.527600  1.0  -0.5917
  O  O216  1  0.721200  0.251600  0.496500  1.0  -0.5964
