# generated using pymatgen
data_Cd2H23C28N3O8
_symmetry_space_group_name_H-M   'P 1'
_cell_length_a   10.10000000
_cell_length_b   13.97800000
_cell_length_c   14.48100000
_cell_angle_alpha   63.11900000
_cell_angle_beta   71.81100000
_cell_angle_gamma   79.58800000
_symmetry_Int_Tables_number   1
_chemical_formula_structural   Cd2H23C28N3O8
_chemical_formula_sum   'Cd4 H46 C56 N6 O16'
_cell_volume   1730.48569950
_cell_formula_units_Z   2
loop_
 _symmetry_equiv_pos_site_id
 _symmetry_equiv_pos_as_xyz
  1  'x, y, z'
loop_
 _atom_site_type_symbol
 _atom_site_label
 _atom_site_symmetry_multiplicity
 _atom_site_fract_x
 _atom_site_fract_y
 _atom_site_fract_z
 _atom_site_occupancy
 _atom_site_charge
  Cd  Cd1  1  0.195680  0.034050  0.393920  1.0  0.9994
  Cd  Cd2  1  0.768100  0.928630  0.025940  1.0  0.9248
  Cd  Cd3  1  0.804320  0.965950  0.606080  1.0  0.9973
  Cd  Cd4  1  0.231900  0.071370  0.974060  1.0  0.9245
  H  H5  1  0.212600  0.773400  0.544800  1.0  0.1053
  H  H6  1  0.178300  0.616000  0.550600  1.0  0.1049
  H  H7  1  0.152000  0.757700  0.254500  1.0  0.0909
  H  H8  1  0.176700  0.923700  0.248100  1.0  0.1158
  H  H9  1  0.041700  0.575700  0.368900  1.0  0.1718
  H  H10  1  0.115000  0.451400  0.556000  1.0  0.0979
  H  H11  1  0.177000  0.260600  0.608300  1.0  0.1293
  H  H12  1  0.197500  0.117000  0.567600  1.0  0.071
  H  H13  1  0.184600  0.294000  0.273900  1.0  0.082
  H  H14  1  0.158200  0.445700  0.301400  1.0  0.1365
  H  H15  1  0.602100  0.862600  0.276200  1.0  0.0826
  H  H16  1  0.533500  0.706800  0.431100  1.0  0.1148
  H  H17  1  0.517800  0.567000  0.253300  1.0  0.1181
  H  H18  1  0.582300  0.722800  0.101700  1.0  0.0838
  H  H19  1  0.469100  0.457400  0.441700  1.0  0.0938
  H  H20  1  0.585700  0.223900  0.234500  1.0  0.1111
  H  H21  1  0.672100  0.063100  0.352900  1.0  0.0939
  H  H22  1  0.755100  0.037600  0.254600  1.0  0.1052
  H  H23  1  0.786400  0.218000  0.280100  1.0  0.1099
  H  H24  1  0.949300  0.285500  0.132300  1.0  0.0951
  H  H25  1  0.754300  0.346900  0.080200  1.0  0.0952
  H  H26  1  0.843800  0.307600  0.992900  1.0  0.1052
  H  H27  1  0.605200  0.260100  0.060000  1.0  0.106
  H  H28  1  0.787400  0.226600  0.455200  1.0  0.1057
  H  H29  1  0.821700  0.384000  0.449400  1.0  0.1052
  H  H30  1  0.848000  0.242300  0.745500  1.0  0.091
  H  H31  1  0.823300  0.076300  0.751900  1.0  0.1161
  H  H32  1  0.958300  0.424300  0.631100  1.0  0.1744
  H  H33  1  0.885000  0.548600  0.444000  1.0  0.0992
  H  H34  1  0.823000  0.739400  0.391700  1.0  0.1298
  H  H35  1  0.802500  0.883000  0.432400  1.0  0.0709
  H  H36  1  0.815400  0.706000  0.726100  1.0  0.0821
  H  H37  1  0.841800  0.554300  0.698600  1.0  0.137
  H  H38  1  0.397900  0.137400  0.723800  1.0  0.0825
  H  H39  1  0.466500  0.293200  0.568900  1.0  0.115
  H  H40  1  0.482200  0.433000  0.746700  1.0  0.1181
  H  H41  1  0.417700  0.277200  0.898300  1.0  0.085
  H  H42  1  0.530900  0.542600  0.558300  1.0  0.0959
  H  H43  1  0.414300  0.776100  0.765500  1.0  0.1117
  H  H44  1  0.327900  0.936900  0.647100  1.0  0.0926
  H  H45  1  0.244900  0.962400  0.745400  1.0  0.1023
  H  H46  1  0.213600  0.782000  0.719900  1.0  0.1092
  H  H47  1  0.050700  0.714500  0.867700  1.0  0.0956
  H  H48  1  0.245700  0.653100  0.919800  1.0  0.0931
  H  H49  1  0.156200  0.692400  0.007100  1.0  0.1064
  H  H50  1  0.394800  0.739900  0.940000  1.0  0.1058
  C  C51  1  0.196300  0.772800  0.485300  1.0  0.1544
  C  C52  1  0.174300  0.678100  0.488700  1.0  -0.1113
  C  C53  1  0.146500  0.668500  0.406100  1.0  0.0868
  C  C54  1  0.157300  0.760300  0.316200  1.0  -0.0828
  C  C55  1  0.176600  0.861500  0.310700  1.0  0.1369
  C  C56  1  0.094000  0.566800  0.414800  1.0  -0.151
  C  C57  1  0.121000  0.463500  0.486200  1.0  -0.1345
  C  C58  1  0.158800  0.370700  0.457900  1.0  0.0488
  C  C59  1  0.175400  0.269600  0.540900  1.0  -0.2239
  C  C60  1  0.189000  0.185400  0.513900  1.0  0.1907
  C  C61  1  0.181000  0.287300  0.341500  1.0  0.1794
  C  C62  1  0.164900  0.378700  0.357500  1.0  -0.1557
  C  C63  1  0.587700  0.802200  0.269900  1.0  0.1702
  C  C64  1  0.545700  0.707900  0.364200  1.0  -0.1662
  C  C65  1  0.523500  0.620200  0.357300  1.0  0.0336
  C  C66  1  0.536200  0.626300  0.259600  1.0  -0.1465
  C  C67  1  0.576400  0.720200  0.168200  1.0  0.1548
  C  C68  1  0.495100  0.511300  0.452400  1.0  -0.1258
  C  C69  1  0.464300  0.113400  0.250100  1.0  0.6834
  C  C70  1  0.608400  0.162400  0.216100  1.0  -0.1454
  C  C71  1  0.716600  0.095200  0.276600  1.0  -0.1284
  C  C72  1  0.833300  0.163200  0.254800  1.0  -0.1353
  C  C73  1  0.903400  0.227500  0.135700  1.0  -0.1517
  C  C74  1  0.795200  0.283700  0.068300  1.0  -0.2111
  C  C75  1  0.676600  0.212500  0.094200  1.0  -0.1292
  C  C76  1  0.937200  0.103500  0.323700  1.0  0.6898
  C  C77  1  0.019200  0.165700  0.083100  1.0  0.6762
  C  C78  1  0.719900  0.127900  0.049900  1.0  0.667
  C  C79  1  0.803700  0.227200  0.514700  1.0  0.1554
  C  C80  1  0.825700  0.321900  0.511300  1.0  -0.1125
  C  C81  1  0.853500  0.331500  0.593900  1.0  0.0857
  C  C82  1  0.842700  0.239700  0.683800  1.0  -0.0833
  C  C83  1  0.823400  0.138500  0.689300  1.0  0.1387
  C  C84  1  0.906000  0.433200  0.585200  1.0  -0.1485
  C  C85  1  0.879000  0.536500  0.513800  1.0  -0.1332
  C  C86  1  0.841200  0.629300  0.542100  1.0  0.0483
  C  C87  1  0.824600  0.730400  0.459100  1.0  -0.2242
  C  C88  1  0.811000  0.814600  0.486100  1.0  0.1901
  C  C89  1  0.819000  0.712700  0.658500  1.0  0.1798
  C  C90  1  0.835100  0.621300  0.642500  1.0  -0.1576
  C  C91  1  0.412300  0.197800  0.730100  1.0  0.168
  C  C92  1  0.454300  0.292100  0.635800  1.0  -0.1659
  C  C93  1  0.476500  0.379800  0.642700  1.0  0.034
  C  C94  1  0.463800  0.373700  0.740400  1.0  -0.1475
  C  C95  1  0.423600  0.279800  0.831800  1.0  0.1539
  C  C96  1  0.504900  0.488700  0.547600  1.0  -0.1264
  C  C97  1  0.535700  0.886600  0.749900  1.0  0.6835
  C  C98  1  0.391600  0.837600  0.783900  1.0  -0.1446
  C  C99  1  0.283400  0.904800  0.723400  1.0  -0.1293
  C  C100  1  0.166700  0.836800  0.745200  1.0  -0.1365
  C  C101  1  0.096600  0.772500  0.864300  1.0  -0.1519
  C  C102  1  0.204800  0.716300  0.931700  1.0  -0.2104
  C  C103  1  0.323400  0.787500  0.905800  1.0  -0.1285
  C  C104  1  0.062800  0.896500  0.676300  1.0  0.6897
  C  C105  1  0.980800  0.834300  0.916900  1.0  0.6733
  C  C106  1  0.280100  0.872100  0.950100  1.0  0.6673
  N  N107  1  0.194900  0.866400  0.397300  1.0  -0.3689
  N  N108  1  0.191300  0.190700  0.417700  1.0  -0.3597
  N  N109  1  0.607300  0.807500  0.172500  1.0  -0.3483
  N  N110  1  0.805100  0.133600  0.602700  1.0  -0.3688
  N  N111  1  0.808700  0.809300  0.582300  1.0  -0.3617
  N  N112  1  0.392700  0.192500  0.827500  1.0  -0.3444
  O  O113  1  0.433700  0.035800  0.345700  1.0  -0.5899
  O  O114  1  0.380500  0.156100  0.195700  1.0  -0.6016
  O  O115  1  0.889900  0.043300  0.420900  1.0  -0.6821
  O  O116  1  0.062900  0.123300  0.279800  1.0  -0.5754
  O  O117  1  0.112300  0.222700  0.003000  1.0  -0.6874
  O  O118  1  0.019600  0.066300  0.115100  1.0  -0.606
  O  O119  1  0.653000  0.041900  0.099200  1.0  -0.6155
  O  O120  1  0.811000  0.148700  0.961000  1.0  -0.5838
  O  O121  1  0.566300  0.964200  0.654300  1.0  -0.5908
  O  O122  1  0.619500  0.843900  0.804300  1.0  -0.6008
  O  O123  1  0.110100  0.956700  0.579100  1.0  -0.6819
  O  O124  1  0.937100  0.876700  0.720200  1.0  -0.5758
  O  O125  1  0.887700  0.777300  0.997000  1.0  -0.6856
  O  O126  1  0.980400  0.933700  0.884900  1.0  -0.6063
  O  O127  1  0.347000  0.958100  0.900800  1.0  -0.6156
  O  O128  1  0.189000  0.851300  0.039000  1.0  -0.5817
