# generated using pymatgen
data_Co2H10C22NO10
_symmetry_space_group_name_H-M   'P 1'
_cell_length_a   9.14280000
_cell_length_b   16.01290000
_cell_length_c   15.13240000
_cell_angle_alpha   90.00000000
_cell_angle_beta   93.15100000
_cell_angle_gamma   90.00000000
_symmetry_Int_Tables_number   1
_chemical_formula_structural   Co2H10C22NO10
_chemical_formula_sum   'Co8 H40 C88 N4 O40'
_cell_volume   2212.07543873
_cell_formula_units_Z   4
loop_
 _symmetry_equiv_pos_site_id
 _symmetry_equiv_pos_as_xyz
  1  'x, y, z'
loop_
 _atom_site_type_symbol
 _atom_site_label
 _atom_site_symmetry_multiplicity
 _atom_site_fract_x
 _atom_site_fract_y
 _atom_site_fract_z
 _atom_site_occupancy
 _atom_site_charge
  Co  Co1  1  0.390540  0.365260  0.664640  1.0  1.0385
  Co  Co2  1  0.469070  0.142190  0.707950  1.0  0.9591
  Co  Co3  1  0.109460  0.865260  0.835360  1.0  1.038
  Co  Co4  1  0.030930  0.642190  0.792050  1.0  0.9602
  Co  Co5  1  0.609460  0.634740  0.335360  1.0  1.037
  Co  Co6  1  0.530930  0.857810  0.292050  1.0  0.9604
  Co  Co7  1  0.890540  0.134740  0.164640  1.0  1.0376
  Co  Co8  1  0.969070  0.357810  0.207950  1.0  0.9589
  H  H9  1  0.267200  0.990100  0.229700  1.0  0.3703
  H  H10  1  0.889200  0.322200  0.635400  1.0  0.1021
  H  H11  1  0.114900  0.248300  0.429000  1.0  0.1126
  H  H12  1  0.641500  0.091800  0.386900  1.0  0.115
  H  H13  1  0.258200  0.180300  0.280600  1.0  0.1146
  H  H14  1  0.550700  0.337000  0.399600  1.0  0.1298
  H  H15  1  0.391900  0.088300  0.521300  1.0  0.0808
  H  H16  1  0.215900  0.017400  0.438700  1.0  0.1237
  H  H17  1  0.940500  0.056300  0.630100  1.0  0.1308
  H  H18  1  0.125000  0.125500  0.708100  1.0  0.0795
  H  H19  1  0.232800  0.490100  0.270300  1.0  0.3705
  H  H20  1  0.610800  0.822200  0.864600  1.0  0.1023
  H  H21  1  0.385100  0.748300  0.071000  1.0  0.1129
  H  H22  1  0.858500  0.591800  0.113100  1.0  0.1153
  H  H23  1  0.241800  0.680300  0.219400  1.0  0.1147
  H  H24  1  0.949300  0.837000  0.100400  1.0  0.1301
  H  H25  1  0.108100  0.588300  0.978700  1.0  0.0813
  H  H26  1  0.284100  0.517400  0.061300  1.0  0.124
  H  H27  1  0.559500  0.556300  0.869900  1.0  0.1308
  H  H28  1  0.375000  0.625500  0.791900  1.0  0.0798
  H  H29  1  0.732800  0.009900  0.770300  1.0  0.3696
  H  H30  1  0.110800  0.677800  0.364600  1.0  0.1022
  H  H31  1  0.885100  0.751700  0.571000  1.0  0.113
  H  H32  1  0.358500  0.908200  0.613100  1.0  0.1154
  H  H33  1  0.741800  0.819700  0.719400  1.0  0.1148
  H  H34  1  0.449300  0.663000  0.600400  1.0  0.1308
  H  H35  1  0.608100  0.911700  0.478700  1.0  0.0812
  H  H36  1  0.784100  0.982600  0.561300  1.0  0.1237
  H  H37  1  0.059500  0.943700  0.369900  1.0  0.1308
  H  H38  1  0.875000  0.874500  0.291900  1.0  0.0801
  H  H39  1  0.767200  0.509900  0.729700  1.0  0.3701
  H  H40  1  0.389200  0.177800  0.135400  1.0  0.1026
  H  H41  1  0.614900  0.251700  0.929000  1.0  0.1127
  H  H42  1  0.141500  0.408200  0.886900  1.0  0.1149
  H  H43  1  0.758200  0.319700  0.780600  1.0  0.115
  H  H44  1  0.050700  0.163000  0.899600  1.0  0.1308
  H  H45  1  0.891900  0.411700  0.021300  1.0  0.0808
  H  H46  1  0.715900  0.482600  0.938700  1.0  0.1236
  H  H47  1  0.440500  0.443700  0.130100  1.0  0.1309
  H  H48  1  0.625000  0.374500  0.208100  1.0  0.0794
  C  C49  1  0.625700  0.266780  0.590510  1.0  0.6944
  C  C50  1  0.762100  0.266850  0.538250  1.0  -0.0661
  C  C51  1  0.891200  0.297870  0.579630  1.0  -0.0289
  C  C52  1  0.022700  0.292670  0.538150  1.0  -0.1289
  C  C53  1  0.159000  0.329360  0.582200  1.0  0.6573
  C  C54  1  0.025900  0.255740  0.455020  1.0  -0.0464
  C  C55  1  0.896100  0.229960  0.410670  1.0  -0.0649
  C  C56  1  0.900700  0.198980  0.316980  1.0  0.672
  C  C57  1  0.761700  0.235500  0.451360  1.0  0.0137
  C  C58  1  0.619000  0.217050  0.401920  1.0  0.0194
  C  C59  1  0.578700  0.136570  0.374760  1.0  -0.0827
  C  C60  1  0.443800  0.123590  0.329350  1.0  -0.1387
  C  C61  1  0.400500  0.037960  0.298950  1.0  0.6614
  C  C62  1  0.348500  0.189880  0.310200  1.0  -0.0575
  C  C63  1  0.389300  0.270320  0.335630  1.0  -0.1339
  C  C64  1  0.524000  0.283200  0.381880  1.0  -0.0514
  C  C65  1  0.288600  0.341510  0.309400  1.0  0.6991
  C  C66  1  0.300800  0.080600  0.544550  1.0  0.1987
  C  C67  1  0.194600  0.037800  0.494070  1.0  -0.1627
  C  C68  1  0.057200  0.025120  0.525260  1.0  0.087
  C  C69  1  0.032300  0.060600  0.606900  1.0  -0.1706
  C  C70  1  0.144600  0.102400  0.653600  1.0  0.1945
  C  C71  1  0.874300  0.766780  0.909490  1.0  0.6944
  C  C72  1  0.737900  0.766850  0.961750  1.0  -0.0662
  C  C73  1  0.608800  0.797870  0.920370  1.0  -0.0286
  C  C74  1  0.477300  0.792670  0.961850  1.0  -0.1289
  C  C75  1  0.341000  0.829360  0.917800  1.0  0.6563
  C  C76  1  0.474100  0.755740  0.044980  1.0  -0.0456
  C  C77  1  0.603900  0.729960  0.089330  1.0  -0.0646
  C  C78  1  0.599300  0.698980  0.183020  1.0  0.6714
  C  C79  1  0.738300  0.735500  0.048640  1.0  0.0137
  C  C80  1  0.881000  0.717050  0.098080  1.0  0.0194
  C  C81  1  0.921300  0.636570  0.125240  1.0  -0.0819
  C  C82  1  0.056200  0.623590  0.170650  1.0  -0.1378
  C  C83  1  0.099500  0.537960  0.201050  1.0  0.6575
  C  C84  1  0.151500  0.689880  0.189800  1.0  -0.0589
  C  C85  1  0.110700  0.770320  0.164370  1.0  -0.1346
  C  C86  1  0.976000  0.783200  0.118120  1.0  -0.0527
  C  C87  1  0.211400  0.841510  0.190600  1.0  0.7007
  C  C88  1  0.199200  0.580600  0.955450  1.0  0.1991
  C  C89  1  0.305400  0.537800  0.005930  1.0  -0.1639
  C  C90  1  0.442800  0.525120  0.974740  1.0  0.0865
  C  C91  1  0.467700  0.560600  0.893100  1.0  -0.1722
  C  C92  1  0.355400  0.602400  0.846400  1.0  0.1951
  C  C93  1  0.374300  0.733220  0.409490  1.0  0.6943
  C  C94  1  0.237900  0.733150  0.461750  1.0  -0.0673
  C  C95  1  0.108800  0.702130  0.420370  1.0  -0.0288
  C  C96  1  0.977300  0.707330  0.461850  1.0  -0.1301
  C  C97  1  0.841000  0.670640  0.417800  1.0  0.6566
  C  C98  1  0.974100  0.744260  0.544980  1.0  -0.0471
  C  C99  1  0.103900  0.770040  0.589330  1.0  -0.0644
  C  C100  1  0.099300  0.801020  0.683020  1.0  0.6716
  C  C101  1  0.238300  0.764500  0.548640  1.0  0.0133
  C  C102  1  0.381000  0.782950  0.598080  1.0  0.0197
  C  C103  1  0.421300  0.863430  0.625240  1.0  -0.0818
  C  C104  1  0.556200  0.876410  0.670650  1.0  -0.1379
  C  C105  1  0.599500  0.962040  0.701050  1.0  0.6545
  C  C106  1  0.651500  0.810120  0.689800  1.0  -0.059
  C  C107  1  0.610700  0.729680  0.664370  1.0  -0.1347
  C  C108  1  0.476000  0.716800  0.618120  1.0  -0.0524
  C  C109  1  0.711400  0.658490  0.690600  1.0  0.7006
  C  C110  1  0.699200  0.919400  0.455450  1.0  0.1994
  C  C111  1  0.805400  0.962200  0.505930  1.0  -0.164
  C  C112  1  0.942800  0.974880  0.474740  1.0  0.0866
  C  C113  1  0.967700  0.939400  0.393100  1.0  -0.172
  C  C114  1  0.855400  0.897600  0.346400  1.0  0.195
  C  C115  1  0.125700  0.233220  0.090510  1.0  0.6943
  C  C116  1  0.262100  0.233150  0.038250  1.0  -0.0679
  C  C117  1  0.391200  0.202130  0.079630  1.0  -0.0299
  C  C118  1  0.522700  0.207330  0.038150  1.0  -0.1292
  C  C119  1  0.659000  0.170640  0.082200  1.0  0.6583
  C  C120  1  0.525900  0.244260  0.955020  1.0  -0.0478
  C  C121  1  0.396100  0.270040  0.910670  1.0  -0.065
  C  C122  1  0.400700  0.301020  0.816980  1.0  0.6724
  C  C123  1  0.261700  0.264500  0.951360  1.0  0.0131
  C  C124  1  0.119000  0.282950  0.901920  1.0  0.0197
  C  C125  1  0.078700  0.363430  0.874760  1.0  -0.0829
  C  C126  1  0.943800  0.376410  0.829350  1.0  -0.1387
  C  C127  1  0.900500  0.462040  0.798950  1.0  0.6587
  C  C128  1  0.848500  0.310120  0.810200  1.0  -0.0575
  C  C129  1  0.889300  0.229680  0.835630  1.0  -0.1345
  C  C130  1  0.024000  0.216800  0.881880  1.0  -0.0522
  C  C131  1  0.788600  0.158490  0.809400  1.0  0.6992
  C  C132  1  0.800800  0.419400  0.044550  1.0  0.1982
  C  C133  1  0.694600  0.462200  0.994070  1.0  -0.1629
  C  C134  1  0.557200  0.474880  0.025260  1.0  0.087
  C  C135  1  0.532300  0.439400  0.106900  1.0  -0.1704
  C  C136  1  0.644600  0.397600  0.153600  1.0  0.1946
  N  N137  1  0.279500  0.111450  0.624800  1.0  -0.335
  N  N138  1  0.220500  0.611450  0.875200  1.0  -0.3351
  N  N139  1  0.720500  0.888550  0.375200  1.0  -0.3364
  N  N140  1  0.779500  0.388550  0.124800  1.0  -0.3344
  O  O141  1  0.564250  0.198540  0.602080  1.0  -0.5791
  O  O142  1  0.589250  0.337270  0.620830  1.0  -0.597
  O  O143  1  0.153500  0.366570  0.654180  1.0  -0.5653
  O  O144  1  0.279100  0.321310  0.547100  1.0  -0.5681
  O  O145  1  0.927400  0.123640  0.302860  1.0  -0.5552
  O  O146  1  0.873690  0.248210  0.252510  1.0  -0.6579
  O  O147  1  0.456600  0.975700  0.333580  1.0  -0.56
  O  O148  1  0.299600  0.037560  0.236260  1.0  -0.4959
  O  O149  1  0.160970  0.324660  0.283060  1.0  -0.6055
  O  O150  1  0.341100  0.414720  0.315210  1.0  -0.5941
  O  O151  1  0.935750  0.698540  0.897920  1.0  -0.5798
  O  O152  1  0.910750  0.837270  0.879170  1.0  -0.5971
  O  O153  1  0.346500  0.866570  0.845820  1.0  -0.5659
  O  O154  1  0.220900  0.821310  0.952900  1.0  -0.5681
  O  O155  1  0.572600  0.623640  0.197140  1.0  -0.5551
  O  O156  1  0.626310  0.748210  0.247490  1.0  -0.658
  O  O157  1  0.043400  0.475700  0.166420  1.0  -0.5596
  O  O158  1  0.200400  0.537560  0.263740  1.0  -0.4962
  O  O159  1  0.339030  0.824660  0.216940  1.0  -0.606
  O  O160  1  0.158900  0.914720  0.184790  1.0  -0.5976
  O  O161  1  0.435750  0.801460  0.397920  1.0  -0.5809
  O  O162  1  0.410750  0.662730  0.379170  1.0  -0.5965
  O  O163  1  0.846500  0.633430  0.345820  1.0  -0.5665
  O  O164  1  0.720900  0.678690  0.452900  1.0  -0.5687
  O  O165  1  0.072600  0.876360  0.697140  1.0  -0.5545
  O  O166  1  0.126310  0.751790  0.747490  1.0  -0.658
  O  O167  1  0.543400  0.024300  0.666420  1.0  -0.5588
  O  O168  1  0.700400  0.962440  0.763740  1.0  -0.4959
  O  O169  1  0.839030  0.675340  0.716940  1.0  -0.6091
  O  O170  1  0.658900  0.585280  0.684790  1.0  -0.5965
  O  O171  1  0.064250  0.301460  0.102080  1.0  -0.5802
  O  O172  1  0.089250  0.162730  0.120830  1.0  -0.5955
  O  O173  1  0.653500  0.133430  0.154180  1.0  -0.5659
  O  O174  1  0.779100  0.178690  0.047100  1.0  -0.5687
  O  O175  1  0.427400  0.376360  0.802860  1.0  -0.554
  O  O176  1  0.373690  0.251790  0.752510  1.0  -0.6583
  O  O177  1  0.956600  0.524300  0.833580  1.0  -0.5591
  O  O178  1  0.799600  0.462440  0.736260  1.0  -0.4952
  O  O179  1  0.660970  0.175340  0.783060  1.0  -0.6065
  O  O180  1  0.841100  0.085280  0.815210  1.0  -0.5942
