# generated using pymatgen
data_Ba3Fe2(C6O13)2
_symmetry_space_group_name_H-M   'P 1'
_cell_length_a   10.84160000
_cell_length_b   17.64980000
_cell_length_c   18.50490000
_cell_angle_alpha   90.00000000
_cell_angle_beta   92.70700000
_cell_angle_gamma   90.00000000
_symmetry_Int_Tables_number   1
_chemical_formula_structural   Ba3Fe2(C6O13)2
_chemical_formula_sum   'Ba12 Fe8 C48 O104'
_cell_volume   3536.99964786
_cell_formula_units_Z   4
loop_
 _symmetry_equiv_pos_site_id
 _symmetry_equiv_pos_as_xyz
  1  'x, y, z'
loop_
 _atom_site_type_symbol
 _atom_site_label
 _atom_site_symmetry_multiplicity
 _atom_site_fract_x
 _atom_site_fract_y
 _atom_site_fract_z
 _atom_site_occupancy
 _atom_site_charge
  Ba  Ba1  1  0.199120  0.818750  0.246910  1.0  1.652
  Ba  Ba2  1  0.443550  0.878650  0.445600  1.0  1.6761
  Ba  Ba3  1  0.580570  0.104900  0.938620  1.0  1.682
  Ba  Ba4  1  0.800880  0.318750  0.253090  1.0  1.651
  Ba  Ba5  1  0.556450  0.378650  0.054400  1.0  1.6758
  Ba  Ba6  1  0.419430  0.604900  0.561380  1.0  1.6827
  Ba  Ba7  1  0.800880  0.181250  0.753090  1.0  1.6509
  Ba  Ba8  1  0.556450  0.121350  0.554400  1.0  1.6757
  Ba  Ba9  1  0.419430  0.895100  0.061380  1.0  1.6827
  Ba  Ba10  1  0.199120  0.681250  0.746910  1.0  1.6521
  Ba  Ba11  1  0.443550  0.621350  0.945600  1.0  1.676
  Ba  Ba12  1  0.580570  0.395100  0.438620  1.0  1.682
  Fe  Fe13  1  0.751510  0.045350  0.252020  1.0  1.1169
  Fe  Fe14  1  0.696830  0.656080  0.252040  1.0  1.1621
  Fe  Fe15  1  0.248490  0.545350  0.247980  1.0  1.1186
  Fe  Fe16  1  0.303170  0.156080  0.247960  1.0  1.1629
  Fe  Fe17  1  0.248490  0.954650  0.747980  1.0  1.1175
  Fe  Fe18  1  0.303170  0.343920  0.747960  1.0  1.1639
  Fe  Fe19  1  0.751510  0.454650  0.752020  1.0  1.116
  Fe  Fe20  1  0.696830  0.843920  0.752040  1.0  1.163
  C  C21  1  0.632500  0.036300  0.383100  1.0  0.5862
  C  C22  1  0.662800  0.120800  0.372900  1.0  0.6442
  C  C23  1  0.710000  0.112800  0.117800  1.0  0.6316
  C  C24  1  0.599500  0.057000  0.126500  1.0  0.6315
  C  C25  1  0.987300  0.978200  0.278500  1.0  0.6196
  C  C26  1  0.922800  0.933800  0.214400  1.0  0.6344
  C  C27  1  0.650300  0.503100  0.218600  1.0  0.6007
  C  C28  1  0.710500  0.504400  0.294600  1.0  0.6463
  C  C29  1  0.485800  0.732800  0.292000  1.0  0.6619
  C  C30  1  0.509100  0.760400  0.215300  1.0  0.5922
  C  C31  1  0.908400  0.741200  0.288100  1.0  0.5985
  C  C32  1  0.932700  0.701600  0.217300  1.0  0.6142
  C  C33  1  0.367500  0.536300  0.116900  1.0  0.5856
  C  C34  1  0.337200  0.620800  0.127100  1.0  0.6439
  C  C35  1  0.290000  0.612800  0.382200  1.0  0.6273
  C  C36  1  0.400500  0.557000  0.373500  1.0  0.6338
  C  C37  1  0.012700  0.478200  0.221500  1.0  0.6216
  C  C38  1  0.077200  0.433800  0.285600  1.0  0.6335
  C  C39  1  0.349700  0.003100  0.281400  1.0  0.6021
  C  C40  1  0.289500  0.004400  0.205400  1.0  0.646
  C  C41  1  0.514200  0.232800  0.208000  1.0  0.6623
  C  C42  1  0.490900  0.260400  0.284700  1.0  0.5907
  C  C43  1  0.091600  0.241200  0.211900  1.0  0.5969
  C  C44  1  0.067300  0.201600  0.282700  1.0  0.6136
  C  C45  1  0.367500  0.963700  0.616900  1.0  0.5861
  C  C46  1  0.337200  0.879200  0.627100  1.0  0.6431
  C  C47  1  0.290000  0.887200  0.882200  1.0  0.6276
  C  C48  1  0.400500  0.943000  0.873500  1.0  0.6315
  C  C49  1  0.012700  0.021800  0.721500  1.0  0.6213
  C  C50  1  0.077200  0.066200  0.785600  1.0  0.633
  C  C51  1  0.349700  0.496900  0.781400  1.0  0.6018
  C  C52  1  0.289500  0.495600  0.705400  1.0  0.6463
  C  C53  1  0.514200  0.267200  0.708000  1.0  0.6618
  C  C54  1  0.490900  0.239600  0.784700  1.0  0.5915
  C  C55  1  0.091600  0.258800  0.711900  1.0  0.5967
  C  C56  1  0.067300  0.298400  0.782700  1.0  0.6137
  C  C57  1  0.632500  0.463700  0.883100  1.0  0.5835
  C  C58  1  0.662800  0.379200  0.872900  1.0  0.6439
  C  C59  1  0.710000  0.387200  0.617800  1.0  0.6312
  C  C60  1  0.599500  0.443000  0.626500  1.0  0.6309
  C  C61  1  0.987300  0.521800  0.778500  1.0  0.6192
  C  C62  1  0.922800  0.566200  0.714400  1.0  0.6353
  C  C63  1  0.650300  0.996900  0.718600  1.0  0.6015
  C  C64  1  0.710500  0.995600  0.794600  1.0  0.646
  C  C65  1  0.485800  0.767200  0.792000  1.0  0.6625
  C  C66  1  0.509100  0.739600  0.715300  1.0  0.5903
  C  C67  1  0.908400  0.758800  0.788100  1.0  0.5983
  C  C68  1  0.932700  0.798400  0.717300  1.0  0.6143
  O  O69  1  0.668500  0.993220  0.332600  1.0  -0.5273
  O  O70  1  0.707300  0.137360  0.311770  1.0  -0.5601
  O  O71  1  0.579100  0.015310  0.436540  1.0  -0.5876
  O  O72  1  0.644400  0.165760  0.421910  1.0  -0.5803
  O  O73  1  0.786800  0.116030  0.171780  1.0  -0.5223
  O  O74  1  0.595100  0.027810  0.187470  1.0  -0.5289
  O  O75  1  0.716100  0.149810  0.061170  1.0  -0.6245
  O  O76  1  0.529000  0.043490  0.073970  1.0  -0.6512
  O  O77  1  0.922400  0.034790  0.298430  1.0  -0.4995
  O  O78  1  0.811800  0.951800  0.201070  1.0  -0.5162
  O  O79  1  0.089200  0.957340  0.303270  1.0  -0.5171
  O  O80  1  0.983600  0.886000  0.181300  1.0  -0.5659
  O  O81  1  0.624300  0.569160  0.193020  1.0  -0.5364
  O  O82  1  0.743500  0.569800  0.318600  1.0  -0.5174
  O  O83  1  0.631000  0.442540  0.188100  1.0  -0.6026
  O  O84  1  0.725400  0.444500  0.328890  1.0  -0.6392
  O  O85  1  0.558200  0.682390  0.317420  1.0  -0.5261
  O  O86  1  0.604800  0.730880  0.188530  1.0  -0.5189
  O  O87  1  0.399800  0.761630  0.324960  1.0  -0.6449
  O  O88  1  0.440500  0.806560  0.185580  1.0  -0.6424
  O  O89  1  0.802000  0.727800  0.312840  1.0  -0.5211
  O  O90  1  0.843800  0.659990  0.192200  1.0  -0.5227
  O  O91  1  0.985200  0.783100  0.317260  1.0  -0.5755
  O  O92  1  0.031700  0.712080  0.188760  1.0  -0.5581
  O  O93  1  0.219600  0.798810  0.093360  1.0  -0.6994
  O  O94  1  0.534900  0.722400  0.474110  1.0  -0.5658
  O  O95  1  0.331500  0.493220  0.167400  1.0  -0.527
  O  O96  1  0.292700  0.637360  0.188230  1.0  -0.5599
  O  O97  1  0.420900  0.515310  0.063460  1.0  -0.5878
  O  O98  1  0.355600  0.665760  0.078090  1.0  -0.5787
  O  O99  1  0.213200  0.616030  0.328220  1.0  -0.5208
  O  O100  1  0.404900  0.527810  0.312530  1.0  -0.528
  O  O101  1  0.283900  0.649810  0.438830  1.0  -0.6212
  O  O102  1  0.471000  0.543490  0.426030  1.0  -0.6488
  O  O103  1  0.077600  0.534790  0.201570  1.0  -0.4982
  O  O104  1  0.188200  0.451800  0.298930  1.0  -0.5186
  O  O105  1  0.910800  0.457340  0.196730  1.0  -0.5152
  O  O106  1  0.016400  0.386000  0.318700  1.0  -0.5651
  O  O107  1  0.375700  0.069160  0.306980  1.0  -0.5375
  O  O108  1  0.256500  0.069800  0.181400  1.0  -0.5175
  O  O109  1  0.369000  0.942540  0.311900  1.0  -0.5991
  O  O110  1  0.274600  0.944500  0.171110  1.0  -0.6426
  O  O111  1  0.441800  0.182390  0.182580  1.0  -0.5275
  O  O112  1  0.395200  0.230880  0.311470  1.0  -0.5175
  O  O113  1  0.600200  0.261630  0.175040  1.0  -0.6445
  O  O114  1  0.559500  0.306560  0.314420  1.0  -0.6428
  O  O115  1  0.198000  0.227800  0.187160  1.0  -0.521
  O  O116  1  0.156200  0.159990  0.307800  1.0  -0.5221
  O  O117  1  0.014800  0.283100  0.182740  1.0  -0.5752
  O  O118  1  0.968300  0.212080  0.311240  1.0  -0.557
  O  O119  1  0.780400  0.298810  0.406640  1.0  -0.7007
  O  O120  1  0.465100  0.222400  0.025890  1.0  -0.5675
  O  O121  1  0.331500  0.006780  0.667400  1.0  -0.5273
  O  O122  1  0.292700  0.862640  0.688230  1.0  -0.5588
  O  O123  1  0.420900  0.984690  0.563460  1.0  -0.5875
  O  O124  1  0.355600  0.834240  0.578090  1.0  -0.5804
  O  O125  1  0.213200  0.883970  0.828220  1.0  -0.5208
  O  O126  1  0.404900  0.972190  0.812530  1.0  -0.5279
  O  O127  1  0.283900  0.850190  0.938830  1.0  -0.6191
  O  O128  1  0.471000  0.956510  0.926030  1.0  -0.6488
  O  O129  1  0.077600  0.965210  0.701570  1.0  -0.5001
  O  O130  1  0.188200  0.048200  0.798930  1.0  -0.5198
  O  O131  1  0.910800  0.042660  0.696730  1.0  -0.5177
  O  O132  1  0.016400  0.114000  0.818700  1.0  -0.5659
  O  O133  1  0.375700  0.430840  0.806980  1.0  -0.5379
  O  O134  1  0.256500  0.430200  0.681400  1.0  -0.5182
  O  O135  1  0.369000  0.557460  0.811900  1.0  -0.6025
  O  O136  1  0.274600  0.555500  0.671110  1.0  -0.6421
  O  O137  1  0.441800  0.317610  0.682580  1.0  -0.5269
  O  O138  1  0.395200  0.269120  0.811470  1.0  -0.5177
  O  O139  1  0.600200  0.238370  0.675040  1.0  -0.6451
  O  O140  1  0.559500  0.193440  0.814420  1.0  -0.6436
  O  O141  1  0.198000  0.272200  0.687160  1.0  -0.5202
  O  O142  1  0.156200  0.340010  0.807800  1.0  -0.5219
  O  O143  1  0.014800  0.216900  0.682740  1.0  -0.5757
  O  O144  1  0.968300  0.287920  0.811240  1.0  -0.557
  O  O145  1  0.780400  0.201190  0.906640  1.0  -0.7008
  O  O146  1  0.465100  0.277600  0.525890  1.0  -0.5672
  O  O147  1  0.668500  0.506780  0.832600  1.0  -0.5252
  O  O148  1  0.707300  0.362640  0.811770  1.0  -0.559
  O  O149  1  0.579100  0.484690  0.936540  1.0  -0.5883
  O  O150  1  0.644400  0.334240  0.921910  1.0  -0.581
  O  O151  1  0.786800  0.383970  0.671780  1.0  -0.5223
  O  O152  1  0.595100  0.472190  0.687470  1.0  -0.5278
  O  O153  1  0.716100  0.350190  0.561170  1.0  -0.6228
  O  O154  1  0.529000  0.456510  0.573970  1.0  -0.6505
  O  O155  1  0.922400  0.465210  0.798430  1.0  -0.5013
  O  O156  1  0.811800  0.548200  0.701070  1.0  -0.5172
  O  O157  1  0.089200  0.542660  0.803270  1.0  -0.5153
  O  O158  1  0.983600  0.614000  0.681300  1.0  -0.5664
  O  O159  1  0.624300  0.930840  0.693020  1.0  -0.537
  O  O160  1  0.743500  0.930200  0.818600  1.0  -0.5182
  O  O161  1  0.631000  0.057460  0.688100  1.0  -0.6029
  O  O162  1  0.725400  0.055500  0.828890  1.0  -0.6389
  O  O163  1  0.558200  0.817610  0.817420  1.0  -0.5254
  O  O164  1  0.604800  0.769120  0.688530  1.0  -0.5189
  O  O165  1  0.399800  0.738370  0.824960  1.0  -0.6438
  O  O166  1  0.440500  0.693440  0.685580  1.0  -0.6436
  O  O167  1  0.802000  0.772200  0.812840  1.0  -0.5207
  O  O168  1  0.843800  0.840010  0.692200  1.0  -0.5218
  O  O169  1  0.985200  0.716900  0.817260  1.0  -0.5746
  O  O170  1  0.031700  0.787920  0.688760  1.0  -0.5581
  O  O171  1  0.219600  0.701190  0.593360  1.0  -0.6992
  O  O172  1  0.534900  0.777600  0.974110  1.0  -0.5656
