# generated using pymatgen
data_CaH3(C3O2)3
_symmetry_space_group_name_H-M   'P 1'
_cell_length_a   6.84310000
_cell_length_b   8.98810000
_cell_length_c   9.97550000
_cell_angle_alpha   102.09600000
_cell_angle_beta   100.55400000
_cell_angle_gamma   110.17000000
_symmetry_Int_Tables_number   1
_chemical_formula_structural   CaH3(C3O2)3
_chemical_formula_sum   'Ca2 H6 C18 O12'
_cell_volume   540.89913153
_cell_formula_units_Z   2
loop_
 _symmetry_equiv_pos_site_id
 _symmetry_equiv_pos_as_xyz
  1  'x, y, z'
loop_
 _atom_site_type_symbol
 _atom_site_label
 _atom_site_symmetry_multiplicity
 _atom_site_fract_x
 _atom_site_fract_y
 _atom_site_fract_z
 _atom_site_occupancy
 _atom_site_charge
  Ca  Ca1  1  0.314830  0.584860  0.109920  1.0  1.6023
  Ca  Ca2  1  0.685170  0.415140  0.890080  1.0  1.6021
  H  H3  1  0.293900  0.507000  0.590200  1.0  0.136
  H  H4  1  0.846000  0.125000  0.660000  1.0  0.143
  H  H5  1  0.873400  0.116800  0.258800  1.0  0.1435
  H  H6  1  0.706100  0.493000  0.409800  1.0  0.1365
  H  H7  1  0.154000  0.875000  0.340000  1.0  0.143
  H  H8  1  0.126600  0.883200  0.741200  1.0  0.1423
  C  C9  1  0.655910  0.925900  0.394360  1.0  0.6751
  C  C10  1  0.168140  0.410540  0.806930  1.0  0.7737
  C  C11  1  0.084470  0.328210  0.649170  1.0  -0.095
  C  C12  1  0.910530  0.174280  0.597230  1.0  -0.0005
  C  C13  1  0.833340  0.094160  0.450870  1.0  -0.1431
  C  C14  1  0.096640  0.325680  0.408440  1.0  -0.1075
  C  C15  1  0.194070  0.408830  0.307240  1.0  0.6996
  C  C16  1  0.177720  0.404150  0.555190  1.0  0.0109
  C  C17  1  0.925820  0.170070  0.356470  1.0  0.0294
  C  C18  1  0.344090  0.074100  0.605640  1.0  0.6742
  C  C19  1  0.831860  0.589460  0.193070  1.0  0.7749
  C  C20  1  0.915530  0.671790  0.350830  1.0  -0.0939
  C  C21  1  0.089470  0.825720  0.402770  1.0  -0.0011
  C  C22  1  0.166660  0.905840  0.549130  1.0  -0.1416
  C  C23  1  0.903360  0.674320  0.591560  1.0  -0.108
  C  C24  1  0.805930  0.591170  0.692760  1.0  0.7006
  C  C25  1  0.822280  0.595850  0.444810  1.0  0.0117
  C  C26  1  0.074180  0.829930  0.643530  1.0  0.0279
  O  O27  1  0.578770  0.852610  0.266840  1.0  -0.6691
  O  O28  1  0.369660  0.479570  0.865040  1.0  -0.7419
  O  O29  1  0.033470  0.408740  0.877830  1.0  -0.6985
  O  O30  1  0.325220  0.558180  0.353100  1.0  -0.6129
  O  O31  1  0.140250  0.327910  0.176620  1.0  -0.6549
  O  O32  1  0.593290  0.863120  0.494680  1.0  -0.4912
  O  O33  1  0.421230  0.147390  0.733160  1.0  -0.6674
  O  O34  1  0.630340  0.520430  0.134960  1.0  -0.7435
  O  O35  1  0.966530  0.591260  0.122170  1.0  -0.6994
  O  O36  1  0.674780  0.441820  0.646900  1.0  -0.6127
  O  O37  1  0.859750  0.672090  0.823380  1.0  -0.6533
  O  O38  1  0.406710  0.136880  0.505320  1.0  -0.4912
