# generated using pymatgen
data_CdH10C10(N3O)2
_symmetry_space_group_name_H-M   'P 1'
_cell_length_a   22.92060000
_cell_length_b   7.70470000
_cell_length_c   19.32080000
_cell_angle_alpha   90.00000000
_cell_angle_beta   114.59600000
_cell_angle_gamma   90.00000000
_symmetry_Int_Tables_number   1
_chemical_formula_structural   CdH10C10(N3O)2
_chemical_formula_sum   'Cd8 H80 C80 N48 O16'
_cell_volume   3102.39702322
_cell_formula_units_Z   8
loop_
 _symmetry_equiv_pos_site_id
 _symmetry_equiv_pos_as_xyz
  1  'x, y, z'
loop_
 _atom_site_type_symbol
 _atom_site_label
 _atom_site_symmetry_multiplicity
 _atom_site_fract_x
 _atom_site_fract_y
 _atom_site_fract_z
 _atom_site_occupancy
 _atom_site_charge
  Cd  Cd1  1  0.247580  0.284200  0.272490  1.0  0.97
  Cd  Cd2  1  0.747580  0.784200  0.272490  1.0  0.97
  Cd  Cd3  1  0.752420  0.284200  0.227510  1.0  0.9699
  Cd  Cd4  1  0.252420  0.784200  0.227510  1.0  0.9699
  Cd  Cd5  1  0.752420  0.715800  0.727510  1.0  0.97
  Cd  Cd6  1  0.252420  0.215800  0.727510  1.0  0.97
  Cd  Cd7  1  0.247580  0.715800  0.772490  1.0  0.9702
  Cd  Cd8  1  0.747580  0.215800  0.772490  1.0  0.9702
  H  H9  1  0.247800  0.363800  0.109800  1.0  0.0533
  H  H10  1  0.253300  0.950900  0.984900  1.0  0.0777
  H  H11  1  0.381900  0.231700  0.439100  1.0  0.0769
  H  H12  1  0.400400  0.744600  0.389400  1.0  0.0817
  H  H13  1  0.479600  0.849900  0.527300  1.0  0.0875
  H  H14  1  0.469800  0.043200  0.549200  1.0  0.0898
  H  H15  1  0.108800  0.219400  0.296300  1.0  0.0788
  H  H16  1  0.109700  0.723100  0.250500  1.0  0.076
  H  H17  1  0.024200  0.035600  0.319800  1.0  0.0874
  H  H18  1  0.029900  0.830900  0.314900  1.0  0.0891
  H  H19  1  0.747800  0.863800  0.109800  1.0  0.0533
  H  H20  1  0.753300  0.450900  0.984900  1.0  0.0777
  H  H21  1  0.881900  0.731700  0.439100  1.0  0.0769
  H  H22  1  0.900400  0.244600  0.389400  1.0  0.0817
  H  H23  1  0.979600  0.349900  0.527300  1.0  0.0875
  H  H24  1  0.969800  0.543200  0.549200  1.0  0.0898
  H  H25  1  0.608800  0.719400  0.296300  1.0  0.0788
  H  H26  1  0.609700  0.223100  0.250500  1.0  0.076
  H  H27  1  0.524200  0.535600  0.319800  1.0  0.0874
  H  H28  1  0.529900  0.330900  0.314900  1.0  0.0891
  H  H29  1  0.752200  0.363800  0.390200  1.0  0.0532
  H  H30  1  0.746700  0.950900  0.515100  1.0  0.0773
  H  H31  1  0.618100  0.231700  0.060900  1.0  0.0769
  H  H32  1  0.599600  0.744600  0.110600  1.0  0.082
  H  H33  1  0.520400  0.849900  0.972700  1.0  0.0875
  H  H34  1  0.530200  0.043200  0.950800  1.0  0.0893
  H  H35  1  0.891200  0.219400  0.203700  1.0  0.0785
  H  H36  1  0.890300  0.723100  0.249500  1.0  0.076
  H  H37  1  0.975800  0.035600  0.180200  1.0  0.0883
  H  H38  1  0.970100  0.830900  0.185100  1.0  0.0886
  H  H39  1  0.252200  0.863800  0.390200  1.0  0.0532
  H  H40  1  0.246700  0.450900  0.515100  1.0  0.0773
  H  H41  1  0.118100  0.731700  0.060900  1.0  0.0769
  H  H42  1  0.099600  0.244600  0.110600  1.0  0.082
  H  H43  1  0.020400  0.349900  0.972700  1.0  0.0875
  H  H44  1  0.030200  0.543200  0.950800  1.0  0.0893
  H  H45  1  0.391200  0.719400  0.203700  1.0  0.0785
  H  H46  1  0.390300  0.223100  0.249500  1.0  0.076
  H  H47  1  0.475800  0.535600  0.180200  1.0  0.0883
  H  H48  1  0.470100  0.330900  0.185100  1.0  0.0886
  H  H49  1  0.752200  0.636200  0.890200  1.0  0.0533
  H  H50  1  0.746700  0.049100  0.015100  1.0  0.0774
  H  H51  1  0.618100  0.768300  0.560900  1.0  0.0763
  H  H52  1  0.599600  0.255400  0.610600  1.0  0.0822
  H  H53  1  0.520400  0.150100  0.472700  1.0  0.086
  H  H54  1  0.530200  0.956800  0.450800  1.0  0.0894
  H  H55  1  0.891200  0.780600  0.703700  1.0  0.0781
  H  H56  1  0.890300  0.276900  0.749500  1.0  0.0745
  H  H57  1  0.975800  0.964400  0.680200  1.0  0.0882
  H  H58  1  0.970100  0.169100  0.685100  1.0  0.0885
  H  H59  1  0.252200  0.136200  0.890200  1.0  0.0533
  H  H60  1  0.246700  0.549100  0.015100  1.0  0.0774
  H  H61  1  0.118100  0.268300  0.560900  1.0  0.0763
  H  H62  1  0.099600  0.755400  0.610600  1.0  0.0822
  H  H63  1  0.020400  0.650100  0.472700  1.0  0.086
  H  H64  1  0.030200  0.456800  0.450800  1.0  0.0894
  H  H65  1  0.391200  0.280600  0.703700  1.0  0.0781
  H  H66  1  0.390300  0.776900  0.749500  1.0  0.0745
  H  H67  1  0.475800  0.464400  0.680200  1.0  0.0882
  H  H68  1  0.470100  0.669100  0.685100  1.0  0.0885
  H  H69  1  0.247800  0.636200  0.609800  1.0  0.0537
  H  H70  1  0.253300  0.049100  0.484900  1.0  0.0777
  H  H71  1  0.381900  0.768300  0.939100  1.0  0.077
  H  H72  1  0.400400  0.255400  0.889400  1.0  0.0817
  H  H73  1  0.479600  0.150100  0.027300  1.0  0.0849
  H  H74  1  0.469800  0.956800  0.049200  1.0  0.0902
  H  H75  1  0.108800  0.780600  0.796300  1.0  0.0788
  H  H76  1  0.109700  0.276900  0.750500  1.0  0.0749
  H  H77  1  0.024200  0.964400  0.819800  1.0  0.0879
  H  H78  1  0.029900  0.169100  0.814900  1.0  0.0882
  H  H79  1  0.747800  0.136200  0.609800  1.0  0.0537
  H  H80  1  0.753300  0.549100  0.484900  1.0  0.0777
  H  H81  1  0.881900  0.268300  0.939100  1.0  0.077
  H  H82  1  0.900400  0.755400  0.889400  1.0  0.0817
  H  H83  1  0.979600  0.650100  0.027300  1.0  0.0849
  H  H84  1  0.969800  0.456800  0.049200  1.0  0.0902
  H  H85  1  0.608800  0.280600  0.796300  1.0  0.0788
  H  H86  1  0.609700  0.776900  0.750500  1.0  0.0749
  H  H87  1  0.524200  0.464400  0.819800  1.0  0.0879
  H  H88  1  0.529900  0.669100  0.814900  1.0  0.0882
  C  C89  1  0.251290  0.018000  0.118360  1.0  0.6487
  C  C90  1  0.250720  0.137900  0.057300  1.0  -0.1619
  C  C91  1  0.248700  0.317500  0.065200  1.0  -0.0745
  C  C92  1  0.252000  0.071600  0.991250  1.0  -0.0658
  C  C93  1  0.374930  0.124600  0.413600  1.0  0.1038
  C  C94  1  0.385100  0.858800  0.386500  1.0  0.1023
  C  C95  1  0.472500  0.970200  0.509100  1.0  -0.0539
  C  C96  1  0.119800  0.111600  0.282300  1.0  0.0995
  C  C97  1  0.120380  0.841600  0.257500  1.0  0.104
  C  C98  1  0.028400  0.940500  0.288500  1.0  -0.0534
  C  C99  1  0.751290  0.518000  0.118360  1.0  0.6487
  C  C100  1  0.750720  0.637900  0.057300  1.0  -0.1619
  C  C101  1  0.748700  0.817500  0.065200  1.0  -0.0745
  C  C102  1  0.752000  0.571600  0.991250  1.0  -0.0658
  C  C103  1  0.874930  0.624600  0.413600  1.0  0.1038
  C  C104  1  0.885100  0.358800  0.386500  1.0  0.1023
  C  C105  1  0.972500  0.470200  0.509100  1.0  -0.0539
  C  C106  1  0.619800  0.611600  0.282300  1.0  0.0995
  C  C107  1  0.620380  0.341600  0.257500  1.0  0.104
  C  C108  1  0.528400  0.440500  0.288500  1.0  -0.0534
  C  C109  1  0.748710  0.018000  0.381640  1.0  0.649
  C  C110  1  0.749280  0.137900  0.442700  1.0  -0.1618
  C  C111  1  0.751300  0.317500  0.434800  1.0  -0.0736
  C  C112  1  0.748000  0.071600  0.508750  1.0  -0.0658
  C  C113  1  0.625070  0.124600  0.086400  1.0  0.1032
  C  C114  1  0.614900  0.858800  0.113500  1.0  0.1036
  C  C115  1  0.527500  0.970200  0.990900  1.0  -0.0498
  C  C116  1  0.880200  0.111600  0.217700  1.0  0.1002
  C  C117  1  0.879620  0.841600  0.242500  1.0  0.105
  C  C118  1  0.971600  0.940500  0.211500  1.0  -0.0521
  C  C119  1  0.248710  0.518000  0.381640  1.0  0.649
  C  C120  1  0.249280  0.637900  0.442700  1.0  -0.1618
  C  C121  1  0.251300  0.817500  0.434800  1.0  -0.0736
  C  C122  1  0.248000  0.571600  0.508750  1.0  -0.0658
  C  C123  1  0.125070  0.624600  0.086400  1.0  0.1032
  C  C124  1  0.114900  0.358800  0.113500  1.0  0.1036
  C  C125  1  0.027500  0.470200  0.990900  1.0  -0.0498
  C  C126  1  0.380200  0.611600  0.217700  1.0  0.1002
  C  C127  1  0.379620  0.341600  0.242500  1.0  0.105
  C  C128  1  0.471600  0.440500  0.211500  1.0  -0.0521
  C  C129  1  0.748710  0.982000  0.881640  1.0  0.6484
  C  C130  1  0.749280  0.862100  0.942700  1.0  -0.1611
  C  C131  1  0.751300  0.682500  0.934800  1.0  -0.0738
  C  C132  1  0.748000  0.928400  0.008750  1.0  -0.0657
  C  C133  1  0.625070  0.875400  0.586400  1.0  0.1033
  C  C134  1  0.614900  0.141200  0.613500  1.0  0.1032
  C  C135  1  0.527500  0.029800  0.490900  1.0  -0.0499
  C  C136  1  0.880200  0.888400  0.717700  1.0  0.1002
  C  C137  1  0.879620  0.158400  0.742500  1.0  0.1053
  C  C138  1  0.971600  0.059500  0.711500  1.0  -0.0525
  C  C139  1  0.248710  0.482000  0.881640  1.0  0.6484
  C  C140  1  0.249280  0.362100  0.942700  1.0  -0.1611
  C  C141  1  0.251300  0.182500  0.934800  1.0  -0.0738
  C  C142  1  0.248000  0.428400  0.008750  1.0  -0.0657
  C  C143  1  0.125070  0.375400  0.586400  1.0  0.1033
  C  C144  1  0.114900  0.641200  0.613500  1.0  0.1032
  C  C145  1  0.027500  0.529800  0.490900  1.0  -0.0499
  C  C146  1  0.380200  0.388400  0.717700  1.0  0.1002
  C  C147  1  0.379620  0.658400  0.742500  1.0  0.1053
  C  C148  1  0.471600  0.559500  0.711500  1.0  -0.0525
  C  C149  1  0.251290  0.982000  0.618360  1.0  0.6482
  C  C150  1  0.250720  0.862100  0.557300  1.0  -0.1612
  C  C151  1  0.248700  0.682500  0.565200  1.0  -0.0744
  C  C152  1  0.252000  0.928400  0.491250  1.0  -0.0654
  C  C153  1  0.374930  0.875400  0.913600  1.0  0.1029
  C  C154  1  0.385100  0.141200  0.886500  1.0  0.1028
  C  C155  1  0.472500  0.029800  0.009100  1.0  -0.0537
  C  C156  1  0.119800  0.888400  0.782300  1.0  0.1003
  C  C157  1  0.120380  0.158400  0.757500  1.0  0.1045
  C  C158  1  0.028400  0.059500  0.788500  1.0  -0.0532
  C  C159  1  0.751290  0.482000  0.618360  1.0  0.6482
  C  C160  1  0.750720  0.362100  0.557300  1.0  -0.1612
  C  C161  1  0.748700  0.182500  0.565200  1.0  -0.0744
  C  C162  1  0.752000  0.428400  0.491250  1.0  -0.0654
  C  C163  1  0.874930  0.375400  0.913600  1.0  0.1029
  C  C164  1  0.885100  0.641200  0.886500  1.0  0.1028
  C  C165  1  0.972500  0.529800  0.009100  1.0  -0.0537
  C  C166  1  0.619800  0.388400  0.782300  1.0  0.1003
  C  C167  1  0.620380  0.658400  0.757500  1.0  0.1045
  C  C168  1  0.528400  0.559500  0.788500  1.0  -0.0532
  N  N169  1  0.327830  0.091000  0.348240  1.0  -0.2532
  N  N170  1  0.334390  0.920900  0.330770  1.0  -0.2547
  N  N171  1  0.412370  0.982700  0.439450  1.0  0.0176
  N  N172  1  0.168210  0.085200  0.265110  1.0  -0.2533
  N  N173  1  0.168710  0.911500  0.249300  1.0  -0.266
  N  N174  1  0.087690  0.962100  0.277300  1.0  0.0138
  N  N175  1  0.827830  0.591000  0.348240  1.0  -0.2532
  N  N176  1  0.834390  0.420900  0.330770  1.0  -0.2547
  N  N177  1  0.912370  0.482700  0.439450  1.0  0.0176
  N  N178  1  0.668210  0.585200  0.265110  1.0  -0.2533
  N  N179  1  0.668710  0.411500  0.249300  1.0  -0.266
  N  N180  1  0.587690  0.462100  0.277300  1.0  0.0138
  N  N181  1  0.672170  0.091000  0.151760  1.0  -0.2533
  N  N182  1  0.665610  0.920900  0.169230  1.0  -0.2547
  N  N183  1  0.587630  0.982700  0.060550  1.0  0.0174
  N  N184  1  0.831790  0.085200  0.234890  1.0  -0.2522
  N  N185  1  0.831290  0.911500  0.250700  1.0  -0.2634
  N  N186  1  0.912310  0.962100  0.222700  1.0  0.0142
  N  N187  1  0.172170  0.591000  0.151760  1.0  -0.2533
  N  N188  1  0.165610  0.420900  0.169230  1.0  -0.2547
  N  N189  1  0.087630  0.482700  0.060550  1.0  0.0174
  N  N190  1  0.331790  0.585200  0.234890  1.0  -0.2522
  N  N191  1  0.331290  0.411500  0.250700  1.0  -0.2634
  N  N192  1  0.412310  0.462100  0.222700  1.0  0.0142
  N  N193  1  0.672170  0.909000  0.651760  1.0  -0.2522
  N  N194  1  0.665610  0.079100  0.669230  1.0  -0.2549
  N  N195  1  0.587630  0.017300  0.560550  1.0  0.0174
  N  N196  1  0.831790  0.914800  0.734890  1.0  -0.2525
  N  N197  1  0.831290  0.088500  0.750700  1.0  -0.2643
  N  N198  1  0.912310  0.037900  0.722700  1.0  0.0145
  N  N199  1  0.172170  0.409000  0.651760  1.0  -0.2522
  N  N200  1  0.165610  0.579100  0.669230  1.0  -0.2549
  N  N201  1  0.087630  0.517300  0.560550  1.0  0.0174
  N  N202  1  0.331790  0.414800  0.734890  1.0  -0.2525
  N  N203  1  0.331290  0.588500  0.750700  1.0  -0.2643
  N  N204  1  0.412310  0.537900  0.722700  1.0  0.0145
  N  N205  1  0.327830  0.909000  0.848240  1.0  -0.2526
  N  N206  1  0.334390  0.079100  0.830770  1.0  -0.254
  N  N207  1  0.412370  0.017300  0.939450  1.0  0.0176
  N  N208  1  0.168210  0.914800  0.765110  1.0  -0.2529
  N  N209  1  0.168710  0.088500  0.749300  1.0  -0.2659
  N  N210  1  0.087690  0.037900  0.777300  1.0  0.0141
  N  N211  1  0.827830  0.409000  0.848240  1.0  -0.2526
  N  N212  1  0.834390  0.579100  0.830770  1.0  -0.254
  N  N213  1  0.912370  0.517300  0.939450  1.0  0.0176
  N  N214  1  0.668210  0.414800  0.765110  1.0  -0.2529
  N  N215  1  0.668710  0.588500  0.749300  1.0  -0.2659
  N  N216  1  0.587690  0.537900  0.777300  1.0  0.0141
  O  O217  1  0.249500  0.080100  0.177760  1.0  -0.794
  O  O218  1  0.254250  0.859200  0.110150  1.0  -0.634
  O  O219  1  0.749500  0.580100  0.177760  1.0  -0.794
  O  O220  1  0.754250  0.359200  0.110150  1.0  -0.634
  O  O221  1  0.750500  0.080100  0.322240  1.0  -0.793
  O  O222  1  0.745750  0.859200  0.389850  1.0  -0.6335
  O  O223  1  0.250500  0.580100  0.322240  1.0  -0.793
  O  O224  1  0.245750  0.359200  0.389850  1.0  -0.6335
  O  O225  1  0.750500  0.919900  0.822240  1.0  -0.7928
  O  O226  1  0.745750  0.140800  0.889850  1.0  -0.6326
  O  O227  1  0.250500  0.419900  0.822240  1.0  -0.7928
  O  O228  1  0.245750  0.640800  0.889850  1.0  -0.6326
  O  O229  1  0.249500  0.919900  0.677760  1.0  -0.7939
  O  O230  1  0.254250  0.140800  0.610150  1.0  -0.6324
  O  O231  1  0.749500  0.419900  0.677760  1.0  -0.7939
  O  O232  1  0.754250  0.640800  0.610150  1.0  -0.6324
