# generated using pymatgen
data_Zn2H36C55(N2O5)2
_symmetry_space_group_name_H-M   'P 1'
_cell_length_a   15.63700000
_cell_length_b   15.69100000
_cell_length_c   16.29100000
_cell_angle_alpha   90.09700000
_cell_angle_beta   90.06700000
_cell_angle_gamma   90.01500000
_symmetry_Int_Tables_number   1
_chemical_formula_structural   Zn2H36C55(N2O5)2
_chemical_formula_sum   'Zn4 H72 C110 N8 O20'
_cell_volume   3997.15388040
_cell_formula_units_Z   2
loop_
 _symmetry_equiv_pos_site_id
 _symmetry_equiv_pos_as_xyz
  1  'x, y, z'
loop_
 _atom_site_type_symbol
 _atom_site_label
 _atom_site_symmetry_multiplicity
 _atom_site_fract_x
 _atom_site_fract_y
 _atom_site_fract_z
 _atom_site_occupancy
 _atom_site_charge
  Zn  Zn1  1  0.125290  0.000070  0.464070  1.0  0.928
  Zn  Zn2  1  0.374700  0.999880  0.964160  1.0  0.956
  Zn  Zn3  1  0.874710  0.999930  0.535930  1.0  0.9295
  Zn  Zn4  1  0.625300  0.000120  0.035840  1.0  0.9565
  H  H5  1  0.305500  0.001900  0.225200  1.0  0.1136
  H  H6  1  0.194700  0.995800  0.727300  1.0  0.1018
  H  H7  1  0.081500  0.997800  0.946900  1.0  0.1175
  H  H8  1  0.418200  0.001700  0.446500  1.0  0.1118
  H  H9  1  0.937200  0.001700  0.740900  1.0  0.118
  H  H10  1  0.562200  0.998400  0.239400  1.0  0.1254
  H  H11  1  0.332600  0.839700  0.072000  1.0  0.0965
  H  H12  1  0.331700  0.156400  0.071700  1.0  0.0938
  H  H13  1  0.331900  0.698100  0.071000  1.0  0.1238
  H  H14  1  0.175900  0.837800  0.568100  1.0  0.1016
  H  H15  1  0.163600  0.698400  0.570900  1.0  0.0902
  H  H16  1  0.169900  0.155900  0.570000  1.0  0.0898
  H  H17  1  0.169500  0.300000  0.570500  1.0  0.1294
  H  H18  1  0.061900  0.150500  0.355200  1.0  0.105
  H  H19  1  0.439100  0.847600  0.853800  1.0  0.1021
  H  H20  1  0.064100  0.712600  0.349500  1.0  0.1292
  H  H21  1  0.071000  0.856900  0.351200  1.0  0.0946
  H  H22  1  0.438200  0.702900  0.851700  1.0  0.126
  H  H23  1  0.428200  0.156300  0.850700  1.0  0.0909
  H  H24  1  0.329500  0.296800  0.072200  1.0  0.1209
  H  H25  1  0.451100  0.291600  0.855300  1.0  0.1088
  H  H26  1  0.061200  0.294800  0.350900  1.0  0.1257
  H  H27  1  0.362200  0.425700  0.075200  1.0  0.0989
  H  H28  1  0.408100  0.438500  0.841200  1.0  0.0966
  H  H29  1  0.081700  0.568700  0.345500  1.0  0.1009
  H  H30  1  0.090700  0.428500  0.342200  1.0  0.1144
  H  H31  1  0.438200  0.573600  0.854700  1.0  0.0928
  H  H32  1  0.137500  0.430900  0.576200  1.0  0.041
  H  H33  1  0.354000  0.569800  0.078100  1.0  0.1233
  H  H34  1  0.696700  0.048100  0.409300  1.0  0.1918
  H  H35  1  0.668600  0.032800  0.319500  1.0  0.1185
  H  H36  1  0.769500  0.142500  0.292900  1.0  0.1086
  H  H37  1  0.550900  0.208600  0.405700  1.0  0.1182
  H  H38  1  0.575300  0.350200  0.372500  1.0  0.1103
  H  H39  1  0.696800  0.388000  0.299500  1.0  0.104
  H  H40  1  0.793900  0.284200  0.259700  1.0  0.1133
  H  H41  1  0.694500  0.998100  0.774800  1.0  0.1132
  H  H42  1  0.805300  0.004200  0.272700  1.0  0.1006
  H  H43  1  0.918500  0.002200  0.053100  1.0  0.1175
  H  H44  1  0.581800  0.998300  0.553500  1.0  0.1111
  H  H45  1  0.062800  0.998300  0.259100  1.0  0.1172
  H  H46  1  0.437800  0.001600  0.760600  1.0  0.1251
  H  H47  1  0.667400  0.160300  0.928000  1.0  0.0964
  H  H48  1  0.668300  0.843600  0.928300  1.0  0.0931
  H  H49  1  0.668100  0.301900  0.929000  1.0  0.1239
  H  H50  1  0.824100  0.162200  0.431900  1.0  0.1022
  H  H51  1  0.836400  0.301600  0.429100  1.0  0.0902
  H  H52  1  0.830100  0.844100  0.430000  1.0  0.0899
  H  H53  1  0.830500  0.700000  0.429500  1.0  0.1303
  H  H54  1  0.938100  0.849500  0.644800  1.0  0.1052
  H  H55  1  0.560900  0.152400  0.146200  1.0  0.1027
  H  H56  1  0.935900  0.287400  0.650500  1.0  0.1296
  H  H57  1  0.929000  0.143100  0.648800  1.0  0.0947
  H  H58  1  0.561800  0.297100  0.148300  1.0  0.1256
  H  H59  1  0.571800  0.843700  0.149300  1.0  0.0897
  H  H60  1  0.670500  0.703200  0.927800  1.0  0.1205
  H  H61  1  0.548900  0.708400  0.144700  1.0  0.109
  H  H62  1  0.938800  0.705200  0.649100  1.0  0.1257
  H  H63  1  0.637800  0.574300  0.924800  1.0  0.0999
  H  H64  1  0.591900  0.561500  0.158800  1.0  0.0954
  H  H65  1  0.918300  0.431300  0.654500  1.0  0.1021
  H  H66  1  0.909300  0.571500  0.657800  1.0  0.1142
  H  H67  1  0.561800  0.426400  0.145300  1.0  0.0932
  H  H68  1  0.862500  0.569100  0.423800  1.0  0.043
  H  H69  1  0.646000  0.430200  0.921900  1.0  0.1228
  H  H70  1  0.303300  0.951900  0.590700  1.0  0.1911
  H  H71  1  0.331400  0.967200  0.680500  1.0  0.1186
  H  H72  1  0.230500  0.857500  0.707100  1.0  0.1087
  H  H73  1  0.449100  0.791400  0.594300  1.0  0.1193
  H  H74  1  0.424700  0.649800  0.627500  1.0  0.1105
  H  H75  1  0.303200  0.612000  0.700500  1.0  0.1052
  H  H76  1  0.206100  0.715800  0.740300  1.0  0.1138
  C  C77  1  0.067100  0.999700  0.720000  1.0  -0.1456
  C  C78  1  0.434100  0.998500  0.219800  1.0  -0.1268
  C  C79  1  0.355000  0.000300  0.256900  1.0  0.0085
  C  C80  1  0.441700  0.001200  0.128300  1.0  0.6735
  C  C81  1  0.145100  0.998400  0.758600  1.0  -0.0894
  C  C82  1  0.077500  0.999400  0.890000  1.0  -0.0837
  C  C83  1  0.421900  0.000800  0.389500  1.0  -0.1207
  C  C84  1  0.059100  0.999100  0.628400  1.0  0.6877
  C  C85  1  0.262800  0.000000  0.384000  1.0  0.6604
  C  C86  1  0.236800  0.999100  0.884400  1.0  0.6592
  C  C87  1  0.990400  0.000800  0.766500  1.0  -0.115
  C  C88  1  0.151200  0.000700  0.841700  1.0  -0.1634
  C  C89  1  0.349700  0.999800  0.342900  1.0  -0.1471
  C  C90  1  0.509100  0.999000  0.265100  1.0  -0.1452
  C  C91  1  0.502600  0.000300  0.350700  1.0  0.2516
  C  C92  1  0.997600  0.000600  0.851500  1.0  0.2325
  C  C93  1  0.117700  0.682100  0.459700  1.0  -0.0189
  C  C94  1  0.383500  0.684400  0.959800  1.0  0.0651
  C  C95  1  0.117200  0.589800  0.459400  1.0  0.0247
  C  C96  1  0.382100  0.593700  0.959700  1.0  0.0962
  C  C97  1  0.352500  0.812800  0.024800  1.0  0.1749
  C  C98  1  0.352300  0.183800  0.025100  1.0  0.1817
  C  C99  1  0.352700  0.727500  0.025700  1.0  -0.2252
  C  C100  1  0.149900  0.812600  0.522900  1.0  0.1673
  C  C101  1  0.146000  0.727200  0.523900  1.0  -0.1407
  C  C102  1  0.148300  0.182900  0.523600  1.0  0.1765
  C  C103  1  0.148300  0.271100  0.524900  1.0  -0.1798
  C  C104  1  0.086000  0.179600  0.399300  1.0  0.1592
  C  C105  1  0.414500  0.818900  0.897800  1.0  0.1523
  C  C106  1  0.087600  0.738100  0.395900  1.0  -0.1009
  C  C107  1  0.090200  0.827200  0.396900  1.0  0.1368
  C  C108  1  0.415300  0.731000  0.896900  1.0  -0.1787
  C  C109  1  0.411600  0.184300  0.898400  1.0  0.1985
  C  C110  1  0.117800  0.315400  0.460400  1.0  0.0605
  C  C111  1  0.382800  0.318600  0.959300  1.0  0.034
  C  C112  1  0.382400  0.409900  0.958700  1.0  0.08
  C  C113  1  0.118400  0.408400  0.459400  1.0  0.123
  C  C114  1  0.351300  0.269000  0.026300  1.0  -0.1744
  C  C115  1  0.420000  0.266300  0.897400  1.0  -0.1944
  C  C116  1  0.084600  0.267500  0.396300  1.0  -0.1737
  C  C117  1  0.369700  0.455000  0.026200  1.0  -0.1418
  C  C118  1  0.401400  0.463600  0.892500  1.0  -0.0879
  C  C119  1  0.098100  0.541000  0.393400  1.0  -0.1237
  C  C120  1  0.101000  0.456200  0.391700  1.0  -0.19
  C  C121  1  0.410300  0.546000  0.897500  1.0  -0.1384
  C  C122  1  0.131200  0.457800  0.525800  1.0  -0.0063
  C  C123  1  0.366700  0.543100  0.028600  1.0  -0.1963
  C  C124  1  0.135400  0.538200  0.524500  1.0  0.2182
  C  C125  1  0.650900  0.059400  0.370500  1.0  -0.1581
  C  C126  1  0.730600  0.184200  0.308800  1.0  -0.0906
  C  C127  1  0.657800  0.161500  0.352600  1.0  0.0131
  C  C128  1  0.599600  0.223700  0.376400  1.0  -0.0882
  C  C129  1  0.614200  0.308600  0.356600  1.0  -0.0911
  C  C130  1  0.687000  0.331300  0.312800  1.0  -0.0917
  C  C131  1  0.745200  0.269000  0.289000  1.0  -0.103
  C  C132  1  0.932900  0.000300  0.280000  1.0  -0.1447
  C  C133  1  0.565900  0.001500  0.780200  1.0  -0.1264
  C  C134  1  0.645000  0.999700  0.743100  1.0  0.0098
  C  C135  1  0.558300  0.998800  0.871700  1.0  0.6758
  C  C136  1  0.854900  0.001600  0.241400  1.0  -0.0883
  C  C137  1  0.922500  0.000600  0.110000  1.0  -0.0869
  C  C138  1  0.578100  0.999200  0.610500  1.0  -0.1233
  C  C139  1  0.940900  0.000900  0.371600  1.0  0.6868
  C  C140  1  0.737200  0.000000  0.616000  1.0  0.6618
  C  C141  1  0.763200  0.000900  0.115600  1.0  0.6582
  C  C142  1  0.009600  0.999200  0.233500  1.0  -0.1145
  C  C143  1  0.848800  0.999300  0.158300  1.0  -0.1626
  C  C144  1  0.650300  0.000200  0.657100  1.0  -0.1478
  C  C145  1  0.490900  0.001000  0.734900  1.0  -0.1427
  C  C146  1  0.497400  0.999700  0.649300  1.0  0.2516
  C  C147  1  0.002400  0.999400  0.148500  1.0  0.2335
  C  C148  1  0.882300  0.317900  0.540300  1.0  -0.0187
  C  C149  1  0.616500  0.315600  0.040200  1.0  0.0618
  C  C150  1  0.882800  0.410200  0.540600  1.0  0.0228
  C  C151  1  0.617900  0.406300  0.040300  1.0  0.0961
  C  C152  1  0.647500  0.187200  0.975200  1.0  0.1749
  C  C153  1  0.647700  0.816200  0.974900  1.0  0.1821
  C  C154  1  0.647300  0.272500  0.974300  1.0  -0.2265
  C  C155  1  0.850100  0.187400  0.477100  1.0  0.1668
  C  C156  1  0.854000  0.272800  0.476100  1.0  -0.1386
  C  C157  1  0.851700  0.817100  0.476400  1.0  0.176
  C  C158  1  0.851700  0.728900  0.475100  1.0  -0.1824
  C  C159  1  0.914000  0.820400  0.600700  1.0  0.1592
  C  C160  1  0.585500  0.181100  0.102200  1.0  0.1528
  C  C161  1  0.912400  0.261900  0.604100  1.0  -0.1022
  C  C162  1  0.909800  0.172800  0.603100  1.0  0.139
  C  C163  1  0.584700  0.269000  0.103100  1.0  -0.1773
  C  C164  1  0.588400  0.815700  0.101600  1.0  0.1997
  C  C165  1  0.882200  0.684600  0.539600  1.0  0.0589
  C  C166  1  0.617200  0.681400  0.040700  1.0  0.0334
  C  C167  1  0.617600  0.590100  0.041300  1.0  0.0799
  C  C168  1  0.881600  0.591600  0.540600  1.0  0.1253
  C  C169  1  0.648700  0.731000  0.973700  1.0  -0.1744
  C  C170  1  0.580000  0.733700  0.102600  1.0  -0.195
  C  C171  1  0.915400  0.732500  0.603700  1.0  -0.1778
  C  C172  1  0.630300  0.545000  0.973800  1.0  -0.138
  C  C173  1  0.598600  0.536400  0.107500  1.0  -0.0858
  C  C174  1  0.901900  0.459000  0.606600  1.0  -0.123
  C  C175  1  0.899000  0.543800  0.608300  1.0  -0.19
  C  C176  1  0.589700  0.454000  0.102500  1.0  -0.1363
  C  C177  1  0.868800  0.542200  0.474200  1.0  -0.0059
  C  C178  1  0.633300  0.456900  0.971400  1.0  -0.1949
  C  C179  1  0.864600  0.461800  0.475500  1.0  0.2188
  C  C180  1  0.349100  0.940600  0.629500  1.0  -0.1583
  C  C181  1  0.269400  0.815800  0.691200  1.0  -0.0882
  C  C182  1  0.342200  0.838500  0.647400  1.0  0.0095
  C  C183  1  0.400400  0.776300  0.623600  1.0  -0.0879
  C  C184  1  0.385800  0.691400  0.643400  1.0  -0.09
  C  C185  1  0.313000  0.668700  0.687200  1.0  -0.095
  C  C186  1  0.254800  0.731000  0.711000  1.0  -0.103
  N  N187  1  0.380800  0.131800  0.961400  1.0  -0.3359
  N  N188  1  0.119100  0.870500  0.460800  1.0  -0.3612
  N  N189  1  0.379200  0.866300  0.960600  1.0  -0.3536
  N  N190  1  0.119900  0.131200  0.461900  1.0  -0.3307
  N  N191  1  0.619200  0.868200  0.038600  1.0  -0.3368
  N  N192  1  0.880900  0.129500  0.539200  1.0  -0.3601
  N  N193  1  0.620800  0.133700  0.039400  1.0  -0.3549
  N  N194  1  0.880100  0.868800  0.538100  1.0  -0.3285
  O  O195  1  0.373600  0.998900  0.088860  1.0  -0.5797
  O  O196  1  0.126400  0.000400  0.587810  1.0  -0.5776
  O  O197  1  0.240000  0.999300  0.958800  1.0  -0.5345
  O  O198  1  0.260400  0.999600  0.459300  1.0  -0.5746
  O  O199  1  0.197500  0.000800  0.339460  1.0  -0.5891
  O  O200  1  0.302540  0.000500  0.839000  1.0  -0.5861
  O  O201  1  0.987100  0.999500  0.596750  1.0  -0.6238
  O  O202  1  0.512100  0.000700  0.097450  1.0  -0.6094
  O  O203  1  0.928700  0.004200  0.902300  1.0  -0.4818
  O  O204  1  0.570900  0.000200  0.402700  1.0  -0.5032
  O  O205  1  0.626400  0.001100  0.911140  1.0  -0.5791
  O  O206  1  0.873600  0.999600  0.412190  1.0  -0.5775
  O  O207  1  0.760000  0.000700  0.041200  1.0  -0.5363
  O  O208  1  0.739600  0.000400  0.540700  1.0  -0.5748
  O  O209  1  0.802500  0.999200  0.660540  1.0  -0.5917
  O  O210  1  0.697460  0.999500  0.161000  1.0  -0.5879
  O  O211  1  0.012900  0.000500  0.403250  1.0  -0.6239
  O  O212  1  0.487900  0.999300  0.902550  1.0  -0.6079
  O  O213  1  0.071300  0.995800  0.097700  1.0  -0.4824
  O  O214  1  0.429100  0.999800  0.597300  1.0  -0.5007
