# generated using pymatgen
data_CoH8(C3O)4
_symmetry_space_group_name_H-M   'P 1'
_cell_length_a   25.64500000
_cell_length_b   11.55500000
_cell_length_c   7.01200000
_cell_angle_alpha   90.00000000
_cell_angle_beta   99.98200000
_cell_angle_gamma   90.00000000
_symmetry_Int_Tables_number   1
_chemical_formula_structural   CoH8(C3O)4
_chemical_formula_sum   'Co4 H32 C48 O16'
_cell_volume   2046.39777599
_cell_formula_units_Z   4
loop_
 _symmetry_equiv_pos_site_id
 _symmetry_equiv_pos_as_xyz
  1  'x, y, z'
loop_
 _atom_site_type_symbol
 _atom_site_label
 _atom_site_symmetry_multiplicity
 _atom_site_fract_x
 _atom_site_fract_y
 _atom_site_fract_z
 _atom_site_occupancy
 _atom_site_charge
  Co  Co1  1  0.500000  0.879660  0.750000  1.0  1.0045
  Co  Co2  1  0.000000  0.379660  0.750000  1.0  1.0045
  Co  Co3  1  0.500000  0.120340  0.250000  1.0  1.0027
  Co  Co4  1  0.000000  0.620340  0.250000  1.0  1.0027
  H  H5  1  0.705400  0.289400  0.691100  1.0  0.0892
  H  H6  1  0.722400  0.101000  0.176500  1.0  0.0759
  H  H7  1  0.656600  0.063000  0.907000  1.0  0.1795
  H  H8  1  0.625000  0.200000  0.635000  1.0  0.1905
  H  H9  1  0.205400  0.789400  0.691100  1.0  0.0892
  H  H10  1  0.222400  0.601000  0.176500  1.0  0.0759
  H  H11  1  0.156600  0.563000  0.907000  1.0  0.1795
  H  H12  1  0.125000  0.700000  0.635000  1.0  0.1905
  H  H13  1  0.294600  0.289400  0.808900  1.0  0.0889
  H  H14  1  0.277600  0.101000  0.323500  1.0  0.0754
  H  H15  1  0.343400  0.063000  0.593000  1.0  0.1781
  H  H16  1  0.375000  0.200000  0.865000  1.0  0.1928
  H  H17  1  0.794600  0.789400  0.808900  1.0  0.0889
  H  H18  1  0.777600  0.601000  0.323500  1.0  0.0754
  H  H19  1  0.843400  0.563000  0.593000  1.0  0.1781
  H  H20  1  0.875000  0.700000  0.865000  1.0  0.1928
  H  H21  1  0.294600  0.710600  0.308900  1.0  0.0889
  H  H22  1  0.277600  0.899000  0.823500  1.0  0.0762
  H  H23  1  0.343400  0.937000  0.093000  1.0  0.1794
  H  H24  1  0.375000  0.800000  0.365000  1.0  0.1938
  H  H25  1  0.794600  0.210600  0.308900  1.0  0.0889
  H  H26  1  0.777600  0.399000  0.823500  1.0  0.0762
  H  H27  1  0.843400  0.437000  0.093000  1.0  0.1794
  H  H28  1  0.875000  0.300000  0.365000  1.0  0.1938
  H  H29  1  0.705400  0.710600  0.191100  1.0  0.0891
  H  H30  1  0.722400  0.899000  0.676500  1.0  0.0757
  H  H31  1  0.656600  0.937000  0.407000  1.0  0.1788
  H  H32  1  0.625000  0.800000  0.135000  1.0  0.1911
  H  H33  1  0.205400  0.210600  0.191100  1.0  0.0891
  H  H34  1  0.222400  0.399000  0.676500  1.0  0.0757
  H  H35  1  0.156600  0.437000  0.407000  1.0  0.1788
  H  H36  1  0.125000  0.300000  0.135000  1.0  0.1911
  C  C37  1  0.569410  0.076300  0.655800  1.0  0.6824
  C  C38  1  0.656860  0.117000  0.849000  1.0  -0.0477
  C  C39  1  0.620420  0.140900  0.700200  1.0  -0.0949
  C  C40  1  0.723000  0.273400  0.815700  1.0  -0.1435
  C  C41  1  0.705250  0.183900  0.921600  1.0  0.0424
  C  C42  1  0.733240  0.161400  0.104800  1.0  -0.1643
  C  C43  1  0.069410  0.576300  0.655800  1.0  0.6824
  C  C44  1  0.156860  0.617000  0.849000  1.0  -0.0477
  C  C45  1  0.120420  0.640900  0.700200  1.0  -0.0949
  C  C46  1  0.223000  0.773400  0.815700  1.0  -0.1435
  C  C47  1  0.205250  0.683900  0.921600  1.0  0.0424
  C  C48  1  0.233240  0.661400  0.104800  1.0  -0.1643
  C  C49  1  0.430590  0.076300  0.844200  1.0  0.6819
  C  C50  1  0.343140  0.117000  0.651000  1.0  -0.0485
  C  C51  1  0.379580  0.140900  0.799800  1.0  -0.0954
  C  C52  1  0.277000  0.273400  0.684300  1.0  -0.1442
  C  C53  1  0.294750  0.183900  0.578400  1.0  0.0425
  C  C54  1  0.266760  0.161400  0.395200  1.0  -0.1622
  C  C55  1  0.930590  0.576300  0.844200  1.0  0.6819
  C  C56  1  0.843140  0.617000  0.651000  1.0  -0.0485
  C  C57  1  0.879580  0.640900  0.799800  1.0  -0.0954
  C  C58  1  0.777000  0.773400  0.684300  1.0  -0.1442
  C  C59  1  0.794750  0.683900  0.578400  1.0  0.0425
  C  C60  1  0.766760  0.661400  0.395200  1.0  -0.1622
  C  C61  1  0.430590  0.923700  0.344200  1.0  0.6828
  C  C62  1  0.343140  0.883000  0.151000  1.0  -0.0492
  C  C63  1  0.379580  0.859100  0.299800  1.0  -0.0953
  C  C64  1  0.277000  0.726600  0.184300  1.0  -0.1438
  C  C65  1  0.294750  0.816100  0.078400  1.0  0.0418
  C  C66  1  0.266760  0.838600  0.895200  1.0  -0.1614
  C  C67  1  0.930590  0.423700  0.344200  1.0  0.6828
  C  C68  1  0.843140  0.383000  0.151000  1.0  -0.0492
  C  C69  1  0.879580  0.359100  0.299800  1.0  -0.0953
  C  C70  1  0.777000  0.226600  0.184300  1.0  -0.1438
  C  C71  1  0.794750  0.316100  0.078400  1.0  0.0418
  C  C72  1  0.766760  0.338600  0.895200  1.0  -0.1614
  C  C73  1  0.569410  0.923700  0.155800  1.0  0.683
  C  C74  1  0.656860  0.883000  0.349000  1.0  -0.0484
  C  C75  1  0.620420  0.859100  0.200200  1.0  -0.0959
  C  C76  1  0.723000  0.726600  0.315700  1.0  -0.1442
  C  C77  1  0.705250  0.816100  0.421600  1.0  0.0417
  C  C78  1  0.733240  0.838600  0.604800  1.0  -0.1643
  C  C79  1  0.069410  0.423700  0.155800  1.0  0.683
  C  C80  1  0.156860  0.383000  0.349000  1.0  -0.0484
  C  C81  1  0.120420  0.359100  0.200200  1.0  -0.0959
  C  C82  1  0.223000  0.226600  0.315700  1.0  -0.1442
  C  C83  1  0.205250  0.316100  0.421600  1.0  0.0417
  C  C84  1  0.233240  0.338600  0.604800  1.0  -0.1643
  O  O85  1  0.568680  0.975680  0.724900  1.0  -0.6328
  O  O86  1  0.530950  0.127640  0.556900  1.0  -0.6802
  O  O87  1  0.068680  0.475680  0.724900  1.0  -0.6328
  O  O88  1  0.030950  0.627640  0.556900  1.0  -0.6802
  O  O89  1  0.431320  0.975680  0.775100  1.0  -0.6319
  O  O90  1  0.469050  0.127640  0.943100  1.0  -0.6803
  O  O91  1  0.931320  0.475680  0.775100  1.0  -0.6319
  O  O92  1  0.969050  0.627640  0.943100  1.0  -0.6803
  O  O93  1  0.431320  0.024320  0.275100  1.0  -0.6317
  O  O94  1  0.469050  0.872360  0.443100  1.0  -0.6772
  O  O95  1  0.931320  0.524320  0.275100  1.0  -0.6317
  O  O96  1  0.969050  0.372360  0.443100  1.0  -0.6772
  O  O97  1  0.568680  0.024320  0.224900  1.0  -0.6336
  O  O98  1  0.530950  0.872360  0.056900  1.0  -0.678
  O  O99  1  0.068680  0.524320  0.224900  1.0  -0.6336
  O  O100  1  0.030950  0.372360  0.056900  1.0  -0.678
