# generated using pymatgen
data_Sr3H8C16(NO7)2
_symmetry_space_group_name_H-M   'P 1'
_cell_length_a   6.82000000
_cell_length_b   16.49300000
_cell_length_c   22.22000000
_cell_angle_alpha   90.00000000
_cell_angle_beta   90.00000000
_cell_angle_gamma   90.00000000
_symmetry_Int_Tables_number   1
_chemical_formula_structural   Sr3H8C16(NO7)2
_chemical_formula_sum   'Sr12 H32 C64 N8 O56'
_cell_volume   2499.35581720
_cell_formula_units_Z   4
loop_
 _symmetry_equiv_pos_site_id
 _symmetry_equiv_pos_as_xyz
  1  'x, y, z'
loop_
 _atom_site_type_symbol
 _atom_site_label
 _atom_site_symmetry_multiplicity
 _atom_site_fract_x
 _atom_site_fract_y
 _atom_site_fract_z
 _atom_site_occupancy
 _atom_site_charge
  Sr  Sr1  1  0.044030  0.057970  0.913060  1.0  1.5999
  Sr  Sr2  1  0.455970  0.442030  0.413060  1.0  1.6005
  Sr  Sr3  1  0.044030  0.942030  0.586940  1.0  1.6007
  Sr  Sr4  1  0.455970  0.557970  0.086940  1.0  1.5994
  Sr  Sr5  1  0.955970  0.942030  0.086940  1.0  1.6005
  Sr  Sr6  1  0.544030  0.557970  0.586940  1.0  1.5998
  Sr  Sr7  1  0.955970  0.057970  0.413060  1.0  1.5995
  Sr  Sr8  1  0.544030  0.442030  0.913060  1.0  1.6007
  Sr  Sr9  1  0.241670  0.000000  0.750000  1.0  1.596
  Sr  Sr10  1  0.258330  0.500000  0.250000  1.0  1.5968
  Sr  Sr11  1  0.758330  0.000000  0.250000  1.0  1.5968
  Sr  Sr12  1  0.741670  0.500000  0.750000  1.0  1.596
  H  H13  1  0.466600  0.752900  0.909400  1.0  0.0989
  H  H14  1  0.299500  0.662300  0.749700  1.0  0.0936
  H  H15  1  0.295000  0.031000  0.026000  1.0  0.4435
  H  H16  1  0.305000  0.967000  0.992400  1.0  0.4413
  H  H17  1  0.033400  0.747100  0.409400  1.0  0.099
  H  H18  1  0.200500  0.837700  0.249700  1.0  0.0935
  H  H19  1  0.205000  0.469000  0.526000  1.0  0.4442
  H  H20  1  0.195000  0.533000  0.492400  1.0  0.4433
  H  H21  1  0.466600  0.247100  0.590600  1.0  0.0984
  H  H22  1  0.299500  0.337700  0.750300  1.0  0.0935
  H  H23  1  0.295000  0.969000  0.474000  1.0  0.4443
  H  H24  1  0.305000  0.033000  0.507600  1.0  0.4412
  H  H25  1  0.033400  0.252900  0.090600  1.0  0.0988
  H  H26  1  0.200500  0.162300  0.250300  1.0  0.0936
  H  H27  1  0.205000  0.531000  0.974000  1.0  0.4448
  H  H28  1  0.195000  0.467000  0.007600  1.0  0.4403
  H  H29  1  0.533400  0.247100  0.090600  1.0  0.0986
  H  H30  1  0.700500  0.337700  0.250300  1.0  0.0937
  H  H31  1  0.705000  0.969000  0.974000  1.0  0.4438
  H  H32  1  0.695000  0.033000  0.007600  1.0  0.4414
  H  H33  1  0.966600  0.252900  0.590600  1.0  0.0984
  H  H34  1  0.799500  0.162300  0.750300  1.0  0.0938
  H  H35  1  0.795000  0.531000  0.474000  1.0  0.4438
  H  H36  1  0.805000  0.467000  0.507600  1.0  0.4408
  H  H37  1  0.533400  0.752900  0.409400  1.0  0.0991
  H  H38  1  0.700500  0.662300  0.249700  1.0  0.0937
  H  H39  1  0.705000  0.031000  0.526000  1.0  0.444
  H  H40  1  0.695000  0.967000  0.492400  1.0  0.441
  H  H41  1  0.966600  0.747100  0.909400  1.0  0.0988
  H  H42  1  0.799500  0.837700  0.749700  1.0  0.0935
  H  H43  1  0.795000  0.469000  0.026000  1.0  0.4447
  H  H44  1  0.805000  0.533000  0.992400  1.0  0.4425
  C  C45  1  0.387800  0.836400  0.847600  1.0  0.1358
  C  C46  1  0.423300  0.759600  0.870100  1.0  -0.0201
  C  C47  1  0.290800  0.784700  0.755900  1.0  0.1379
  C  C48  1  0.208100  0.803700  0.694000  1.0  0.654
  C  C49  1  0.393700  0.692900  0.833500  1.0  -0.1572
  C  C50  1  0.441400  0.608400  0.855200  1.0  0.6732
  C  C51  1  0.416200  0.910900  0.887200  1.0  0.6134
  C  C52  1  0.323700  0.705900  0.775200  1.0  -0.0235
  C  C53  1  0.112200  0.663600  0.347600  1.0  0.1348
  C  C54  1  0.076700  0.740400  0.370100  1.0  -0.0211
  C  C55  1  0.209200  0.715300  0.255900  1.0  0.1374
  C  C56  1  0.291900  0.696300  0.194000  1.0  0.6539
  C  C57  1  0.106300  0.807100  0.333500  1.0  -0.1564
  C  C58  1  0.058600  0.891600  0.355200  1.0  0.6755
  C  C59  1  0.083800  0.589100  0.387200  1.0  0.6129
  C  C60  1  0.176300  0.794100  0.275200  1.0  -0.0233
  C  C61  1  0.387800  0.163600  0.652400  1.0  0.1349
  C  C62  1  0.423300  0.240400  0.629900  1.0  -0.0215
  C  C63  1  0.290800  0.215300  0.744100  1.0  0.1374
  C  C64  1  0.208100  0.196300  0.806000  1.0  0.6567
  C  C65  1  0.393700  0.307100  0.666500  1.0  -0.1568
  C  C66  1  0.441400  0.391600  0.644800  1.0  0.6744
  C  C67  1  0.416200  0.089100  0.612800  1.0  0.6131
  C  C68  1  0.323700  0.294100  0.724800  1.0  -0.0224
  C  C69  1  0.112200  0.336400  0.152400  1.0  0.1356
  C  C70  1  0.076700  0.259600  0.129900  1.0  -0.0208
  C  C71  1  0.209200  0.284700  0.244100  1.0  0.1365
  C  C72  1  0.291900  0.303700  0.306000  1.0  0.6565
  C  C73  1  0.106300  0.192900  0.166500  1.0  -0.1575
  C  C74  1  0.058600  0.108400  0.144800  1.0  0.6731
  C  C75  1  0.083800  0.410900  0.112800  1.0  0.6134
  C  C76  1  0.176300  0.205900  0.224800  1.0  -0.0216
  C  C77  1  0.612200  0.163600  0.152400  1.0  0.1348
  C  C78  1  0.576700  0.240400  0.129900  1.0  -0.0212
  C  C79  1  0.709200  0.215300  0.244100  1.0  0.1373
  C  C80  1  0.791900  0.196300  0.306000  1.0  0.657
  C  C81  1  0.606300  0.307100  0.166500  1.0  -0.1563
  C  C82  1  0.558600  0.391600  0.144800  1.0  0.6749
  C  C83  1  0.583800  0.089100  0.112800  1.0  0.6127
  C  C84  1  0.676300  0.294100  0.224800  1.0  -0.0211
  C  C85  1  0.887800  0.336400  0.652400  1.0  0.1357
  C  C86  1  0.923300  0.259600  0.629900  1.0  -0.0212
  C  C87  1  0.790800  0.284700  0.744100  1.0  0.1368
  C  C88  1  0.708100  0.303700  0.806000  1.0  0.6563
  C  C89  1  0.893700  0.192900  0.666500  1.0  -0.1578
  C  C90  1  0.941400  0.108400  0.644800  1.0  0.6718
  C  C91  1  0.916200  0.410900  0.612800  1.0  0.6138
  C  C92  1  0.823700  0.205900  0.724800  1.0  -0.0226
  C  C93  1  0.612200  0.836400  0.347600  1.0  0.1357
  C  C94  1  0.576700  0.759600  0.370100  1.0  -0.0208
  C  C95  1  0.709200  0.784700  0.255900  1.0  0.1378
  C  C96  1  0.791900  0.803700  0.194000  1.0  0.6534
  C  C97  1  0.606300  0.692900  0.333500  1.0  -0.1571
  C  C98  1  0.558600  0.608400  0.355200  1.0  0.6744
  C  C99  1  0.583800  0.910900  0.387200  1.0  0.6131
  C  C100  1  0.676300  0.705900  0.275200  1.0  -0.0232
  C  C101  1  0.887800  0.663600  0.847600  1.0  0.1349
  C  C102  1  0.923300  0.740400  0.870100  1.0  -0.0204
  C  C103  1  0.790800  0.715300  0.755900  1.0  0.1373
  C  C104  1  0.708100  0.696300  0.694000  1.0  0.6543
  C  C105  1  0.893700  0.807100  0.833500  1.0  -0.1568
  C  C106  1  0.941400  0.891600  0.855200  1.0  0.6751
  C  C107  1  0.916200  0.589100  0.887200  1.0  0.6134
  C  C108  1  0.823700  0.794100  0.775200  1.0  -0.0236
  N  N109  1  0.323800  0.849300  0.791230  1.0  -0.5188
  N  N110  1  0.176200  0.650700  0.291230  1.0  -0.5178
  N  N111  1  0.323800  0.150700  0.708770  1.0  -0.5174
  N  N112  1  0.176200  0.349300  0.208770  1.0  -0.519
  N  N113  1  0.676200  0.150700  0.208770  1.0  -0.5173
  N  N114  1  0.823800  0.349300  0.708770  1.0  -0.5188
  N  N115  1  0.676200  0.849300  0.291230  1.0  -0.5187
  N  N116  1  0.823800  0.650700  0.791230  1.0  -0.518
  O  O117  1  0.363500  0.978400  0.865120  1.0  -0.7622
  O  O118  1  0.167900  0.877100  0.683460  1.0  -0.7976
  O  O119  1  0.481500  0.600000  0.910230  1.0  -0.65
  O  O120  1  0.228700  0.998700  0.007230  1.0  -0.9084
  O  O121  1  0.444200  0.550800  0.818280  1.0  -0.7307
  O  O122  1  0.482600  0.900400  0.938460  1.0  -0.6102
  O  O123  1  0.182300  0.747900  0.658330  1.0  -0.5212
  O  O124  1  0.136500  0.521600  0.365120  1.0  -0.7621
  O  O125  1  0.332100  0.622900  0.183460  1.0  -0.7976
  O  O126  1  0.018500  0.900000  0.410230  1.0  -0.6506
  O  O127  1  0.271300  0.501300  0.507230  1.0  -0.9034
  O  O128  1  0.055800  0.949200  0.318280  1.0  -0.73
  O  O129  1  0.017400  0.599600  0.438460  1.0  -0.6101
  O  O130  1  0.317700  0.752100  0.158330  1.0  -0.5196
  O  O131  1  0.363500  0.021600  0.634880  1.0  -0.7616
  O  O132  1  0.167900  0.122900  0.816540  1.0  -0.7952
  O  O133  1  0.481500  0.400000  0.589770  1.0  -0.65
  O  O134  1  0.228700  0.001300  0.492770  1.0  -0.9088
  O  O135  1  0.444200  0.449200  0.681720  1.0  -0.7311
  O  O136  1  0.482600  0.099600  0.561540  1.0  -0.6099
  O  O137  1  0.182300  0.252100  0.841670  1.0  -0.5202
  O  O138  1  0.136500  0.478400  0.134880  1.0  -0.7615
  O  O139  1  0.332100  0.377100  0.316540  1.0  -0.7963
  O  O140  1  0.018500  0.100000  0.089770  1.0  -0.6497
  O  O141  1  0.271300  0.498700  0.992770  1.0  -0.9034
  O  O142  1  0.055800  0.050800  0.181720  1.0  -0.7279
  O  O143  1  0.017400  0.400400  0.061540  1.0  -0.6096
  O  O144  1  0.317700  0.247900  0.341670  1.0  -0.5193
  O  O145  1  0.636500  0.021600  0.134880  1.0  -0.7606
  O  O146  1  0.832100  0.122900  0.316540  1.0  -0.795
  O  O147  1  0.518500  0.400000  0.089770  1.0  -0.6499
  O  O148  1  0.771300  0.001300  0.992770  1.0  -0.9025
  O  O149  1  0.555800  0.449200  0.181720  1.0  -0.7304
  O  O150  1  0.517400  0.099600  0.061540  1.0  -0.6092
  O  O151  1  0.817700  0.252100  0.341670  1.0  -0.5167
  O  O152  1  0.863500  0.478400  0.634880  1.0  -0.7623
  O  O153  1  0.667900  0.377100  0.816540  1.0  -0.7963
  O  O154  1  0.981500  0.100000  0.589770  1.0  -0.6499
  O  O155  1  0.728700  0.498700  0.492770  1.0  -0.9072
  O  O156  1  0.944200  0.050800  0.681720  1.0  -0.7283
  O  O157  1  0.982600  0.400400  0.561540  1.0  -0.6095
  O  O158  1  0.682300  0.247900  0.841670  1.0  -0.517
  O  O159  1  0.636500  0.978400  0.365120  1.0  -0.7616
  O  O160  1  0.832100  0.877100  0.183460  1.0  -0.7978
  O  O161  1  0.518500  0.600000  0.410230  1.0  -0.6498
  O  O162  1  0.771300  0.998700  0.507230  1.0  -0.9021
  O  O163  1  0.555800  0.550800  0.318280  1.0  -0.7302
  O  O164  1  0.517400  0.900400  0.438460  1.0  -0.6105
  O  O165  1  0.817700  0.747900  0.158330  1.0  -0.5171
  O  O166  1  0.863500  0.521600  0.865120  1.0  -0.763
  O  O167  1  0.667900  0.622900  0.683460  1.0  -0.7976
  O  O168  1  0.981500  0.900000  0.910230  1.0  -0.6509
  O  O169  1  0.728700  0.501300  0.007230  1.0  -0.9075
  O  O170  1  0.944200  0.949200  0.818280  1.0  -0.731
  O  O171  1  0.982600  0.599600  0.938460  1.0  -0.6104
  O  O172  1  0.682300  0.752100  0.658330  1.0  -0.5178
