# generated using pymatgen
data_Ba3V2H4(C5O12)2
_symmetry_space_group_name_H-M   'P 1'
_cell_length_a   10.72500000
_cell_length_b   15.20400000
_cell_length_c   17.35410000
_cell_angle_alpha   90.00000000
_cell_angle_beta   99.41300000
_cell_angle_gamma   90.00000000
_symmetry_Int_Tables_number   1
_chemical_formula_structural   Ba3V2H4(C5O12)2
_chemical_formula_sum   'Ba12 V8 H16 C40 O96'
_cell_volume   2791.70670574
_cell_formula_units_Z   4
loop_
 _symmetry_equiv_pos_site_id
 _symmetry_equiv_pos_as_xyz
  1  'x, y, z'
loop_
 _atom_site_type_symbol
 _atom_site_label
 _atom_site_symmetry_multiplicity
 _atom_site_fract_x
 _atom_site_fract_y
 _atom_site_fract_z
 _atom_site_occupancy
 _atom_site_charge
  Ba  Ba1  1  0.179070  0.027790  0.443260  1.0  1.5962
  Ba  Ba2  1  0.679070  0.527790  0.443260  1.0  1.5962
  Ba  Ba3  1  0.820930  0.027790  0.056740  1.0  1.596
  Ba  Ba4  1  0.320930  0.527790  0.056740  1.0  1.596
  Ba  Ba5  1  0.820930  0.972210  0.556740  1.0  1.5963
  Ba  Ba6  1  0.320930  0.472210  0.556740  1.0  1.5963
  Ba  Ba7  1  0.179070  0.972210  0.943260  1.0  1.5965
  Ba  Ba8  1  0.679070  0.472210  0.943260  1.0  1.5965
  Ba  Ba9  1  0.000000  0.220590  0.250000  1.0  1.5581
  Ba  Ba10  1  0.500000  0.720590  0.250000  1.0  1.5581
  Ba  Ba11  1  0.000000  0.779410  0.750000  1.0  1.558
  Ba  Ba12  1  0.500000  0.279410  0.750000  1.0  1.558
  V  V13  1  0.190380  0.408540  0.342750  1.0  2.002
  V  V14  1  0.690380  0.908540  0.342750  1.0  2.002
  V  V15  1  0.809620  0.408540  0.157250  1.0  2.0027
  V  V16  1  0.309620  0.908540  0.157250  1.0  2.0027
  V  V17  1  0.809620  0.591460  0.657250  1.0  2.003
  V  V18  1  0.309620  0.091460  0.657250  1.0  2.003
  V  V19  1  0.190380  0.591460  0.842750  1.0  2.0028
  V  V20  1  0.690380  0.091460  0.842750  1.0  2.0028
  H  H21  1  0.025000  0.855000  0.463000  1.0  0.4657
  H  H22  1  0.090000  0.861000  0.531000  1.0  0.4367
  H  H23  1  0.525000  0.355000  0.463000  1.0  0.4657
  H  H24  1  0.590000  0.361000  0.531000  1.0  0.4367
  H  H25  1  0.975000  0.855000  0.037000  1.0  0.4656
  H  H26  1  0.910000  0.861000  0.969000  1.0  0.4327
  H  H27  1  0.475000  0.355000  0.037000  1.0  0.4656
  H  H28  1  0.410000  0.361000  0.969000  1.0  0.4327
  H  H29  1  0.975000  0.145000  0.537000  1.0  0.4673
  H  H30  1  0.910000  0.139000  0.469000  1.0  0.4356
  H  H31  1  0.475000  0.645000  0.537000  1.0  0.4673
  H  H32  1  0.410000  0.639000  0.469000  1.0  0.4356
  H  H33  1  0.025000  0.145000  0.963000  1.0  0.4681
  H  H34  1  0.090000  0.139000  0.031000  1.0  0.4371
  H  H35  1  0.525000  0.645000  0.963000  1.0  0.4681
  H  H36  1  0.590000  0.639000  0.031000  1.0  0.4371
  C  C37  1  0.943200  0.421500  0.382400  1.0  0.546
  C  C38  1  0.005100  0.510000  0.412700  1.0  0.5557
  C  C39  1  0.124900  0.031300  0.171300  1.0  0.6053
  C  C40  1  0.233400  0.050200  0.239900  1.0  0.5751
  C  C41  1  0.216100  0.265600  0.459200  1.0  0.5375
  C  C42  1  0.443200  0.921500  0.382400  1.0  0.546
  C  C43  1  0.505100  0.010000  0.412700  1.0  0.5557
  C  C44  1  0.624900  0.531300  0.171300  1.0  0.6053
  C  C45  1  0.733400  0.550200  0.239900  1.0  0.5751
  C  C46  1  0.716100  0.765600  0.459200  1.0  0.5375
  C  C47  1  0.056800  0.421500  0.117600  1.0  0.5459
  C  C48  1  0.994900  0.510000  0.087300  1.0  0.5551
  C  C49  1  0.875100  0.031300  0.328700  1.0  0.6067
  C  C50  1  0.766600  0.050200  0.260100  1.0  0.5745
  C  C51  1  0.783900  0.265600  0.040800  1.0  0.5378
  C  C52  1  0.556800  0.921500  0.117600  1.0  0.5459
  C  C53  1  0.494900  0.010000  0.087300  1.0  0.5551
  C  C54  1  0.375100  0.531300  0.328700  1.0  0.6067
  C  C55  1  0.266600  0.550200  0.260100  1.0  0.5745
  C  C56  1  0.283900  0.765600  0.040800  1.0  0.5378
  C  C57  1  0.056800  0.578500  0.617600  1.0  0.5457
  C  C58  1  0.994900  0.490000  0.587300  1.0  0.5546
  C  C59  1  0.875100  0.968700  0.828700  1.0  0.6067
  C  C60  1  0.766600  0.949800  0.760100  1.0  0.5743
  C  C61  1  0.783900  0.734400  0.540800  1.0  0.5377
  C  C62  1  0.556800  0.078500  0.617600  1.0  0.5457
  C  C63  1  0.494900  0.990000  0.587300  1.0  0.5546
  C  C64  1  0.375100  0.468700  0.828700  1.0  0.6067
  C  C65  1  0.266600  0.449800  0.760100  1.0  0.5743
  C  C66  1  0.283900  0.234400  0.540800  1.0  0.5377
  C  C67  1  0.943200  0.578500  0.882400  1.0  0.5462
  C  C68  1  0.005100  0.490000  0.912700  1.0  0.5549
  C  C69  1  0.124900  0.968700  0.671300  1.0  0.6054
  C  C70  1  0.233400  0.949800  0.739900  1.0  0.5759
  C  C71  1  0.216100  0.734400  0.959200  1.0  0.5375
  C  C72  1  0.443200  0.078500  0.882400  1.0  0.5462
  C  C73  1  0.505100  0.990000  0.912700  1.0  0.5549
  C  C74  1  0.624900  0.468700  0.671300  1.0  0.6054
  C  C75  1  0.733400  0.449800  0.739900  1.0  0.5759
  C  C76  1  0.716100  0.234400  0.959200  1.0  0.5375
  O  O77  1  0.008600  0.376200  0.341100  1.0  -0.6632
  O  O78  1  0.840400  0.400600  0.399500  1.0  -0.6284
  O  O79  1  0.123900  0.512500  0.412900  1.0  -0.6612
  O  O80  1  0.938400  0.567100  0.435100  1.0  -0.6311
  O  O81  1  0.026500  0.074100  0.164200  1.0  -0.6934
  O  O82  1  0.145500  0.968500  0.125400  1.0  -0.6465
  O  O83  1  0.217700  0.106500  0.288400  1.0  -0.6574
  O  O84  1  0.331800  0.004400  0.239100  1.0  -0.5856
  O  O85  1  0.232600  0.347300  0.446400  1.0  -0.6813
  O  O86  1  0.156500  0.212100  0.414100  1.0  -0.5915
  O  O87  1  0.219200  0.328800  0.286200  1.0  -0.7605
  O  O88  1  0.049800  0.887000  0.499400  1.0  -0.8959
  O  O89  1  0.508600  0.876200  0.341100  1.0  -0.6632
  O  O90  1  0.340400  0.900600  0.399500  1.0  -0.6284
  O  O91  1  0.623900  0.012500  0.412900  1.0  -0.6612
  O  O92  1  0.438400  0.067100  0.435100  1.0  -0.6311
  O  O93  1  0.526500  0.574100  0.164200  1.0  -0.6934
  O  O94  1  0.645500  0.468500  0.125400  1.0  -0.6465
  O  O95  1  0.717700  0.606500  0.288400  1.0  -0.6574
  O  O96  1  0.831800  0.504400  0.239100  1.0  -0.5856
  O  O97  1  0.732600  0.847300  0.446400  1.0  -0.6813
  O  O98  1  0.656500  0.712100  0.414100  1.0  -0.5915
  O  O99  1  0.719200  0.828800  0.286200  1.0  -0.7605
  O  O100  1  0.549800  0.387000  0.499400  1.0  -0.8959
  O  O101  1  0.991400  0.376200  0.158900  1.0  -0.663
  O  O102  1  0.159600  0.400600  0.100500  1.0  -0.6309
  O  O103  1  0.876100  0.512500  0.087100  1.0  -0.6604
  O  O104  1  0.061600  0.567100  0.064900  1.0  -0.6311
  O  O105  1  0.973500  0.074100  0.335800  1.0  -0.6936
  O  O106  1  0.854500  0.968500  0.374600  1.0  -0.6455
  O  O107  1  0.782300  0.106500  0.211600  1.0  -0.6585
  O  O108  1  0.668200  0.004400  0.260900  1.0  -0.5857
  O  O109  1  0.767400  0.347300  0.053600  1.0  -0.6818
  O  O110  1  0.843500  0.212100  0.085900  1.0  -0.5908
  O  O111  1  0.780800  0.328800  0.213800  1.0  -0.7624
  O  O112  1  0.950200  0.887000  0.000600  1.0  -0.8964
  O  O113  1  0.491400  0.876200  0.158900  1.0  -0.663
  O  O114  1  0.659600  0.900600  0.100500  1.0  -0.6309
  O  O115  1  0.376100  0.012500  0.087100  1.0  -0.6604
  O  O116  1  0.561600  0.067100  0.064900  1.0  -0.6311
  O  O117  1  0.473500  0.574100  0.335800  1.0  -0.6936
  O  O118  1  0.354500  0.468500  0.374600  1.0  -0.6455
  O  O119  1  0.282300  0.606500  0.211600  1.0  -0.6585
  O  O120  1  0.168200  0.504400  0.260900  1.0  -0.5857
  O  O121  1  0.267400  0.847300  0.053600  1.0  -0.6818
  O  O122  1  0.343500  0.712100  0.085900  1.0  -0.5908
  O  O123  1  0.280800  0.828800  0.213800  1.0  -0.7624
  O  O124  1  0.450200  0.387000  0.000600  1.0  -0.8964
  O  O125  1  0.991400  0.623800  0.658900  1.0  -0.6634
  O  O126  1  0.159600  0.599400  0.600500  1.0  -0.6316
  O  O127  1  0.876100  0.487500  0.587100  1.0  -0.6611
  O  O128  1  0.061600  0.432900  0.564900  1.0  -0.6288
  O  O129  1  0.973500  0.925900  0.835800  1.0  -0.6943
  O  O130  1  0.854500  0.031500  0.874600  1.0  -0.647
  O  O131  1  0.782300  0.893500  0.711600  1.0  -0.6577
  O  O132  1  0.668200  0.995600  0.760900  1.0  -0.5855
  O  O133  1  0.767400  0.652700  0.553600  1.0  -0.6814
  O  O134  1  0.843500  0.787900  0.585900  1.0  -0.5911
  O  O135  1  0.780800  0.671200  0.713800  1.0  -0.7615
  O  O136  1  0.950200  0.113000  0.500600  1.0  -0.901
  O  O137  1  0.491400  0.123800  0.658900  1.0  -0.6634
  O  O138  1  0.659600  0.099400  0.600500  1.0  -0.6316
  O  O139  1  0.376100  0.987500  0.587100  1.0  -0.6611
  O  O140  1  0.561600  0.932900  0.564900  1.0  -0.6288
  O  O141  1  0.473500  0.425900  0.835800  1.0  -0.6943
  O  O142  1  0.354500  0.531500  0.874600  1.0  -0.647
  O  O143  1  0.282300  0.393500  0.711600  1.0  -0.6577
  O  O144  1  0.168200  0.495600  0.760900  1.0  -0.5855
  O  O145  1  0.267400  0.152700  0.553600  1.0  -0.6814
  O  O146  1  0.343500  0.287900  0.585900  1.0  -0.5911
  O  O147  1  0.280800  0.171200  0.713800  1.0  -0.7615
  O  O148  1  0.450200  0.613000  0.500600  1.0  -0.901
  O  O149  1  0.008600  0.623800  0.841100  1.0  -0.6634
  O  O150  1  0.840400  0.599400  0.899500  1.0  -0.6286
  O  O151  1  0.123900  0.487500  0.912900  1.0  -0.6602
  O  O152  1  0.938400  0.432900  0.935100  1.0  -0.6294
  O  O153  1  0.026500  0.925900  0.664200  1.0  -0.6933
  O  O154  1  0.145500  0.031500  0.625400  1.0  -0.6476
  O  O155  1  0.217700  0.893500  0.788400  1.0  -0.6581
  O  O156  1  0.331800  0.995600  0.739100  1.0  -0.5852
  O  O157  1  0.232600  0.652700  0.946400  1.0  -0.6813
  O  O158  1  0.156500  0.787900  0.914100  1.0  -0.5912
  O  O159  1  0.219200  0.671200  0.786200  1.0  -0.7594
  O  O160  1  0.049800  0.113000  0.999400  1.0  -0.9006
  O  O161  1  0.508600  0.123800  0.841100  1.0  -0.6634
  O  O162  1  0.340400  0.099400  0.899500  1.0  -0.6286
  O  O163  1  0.623900  0.987500  0.912900  1.0  -0.6602
  O  O164  1  0.438400  0.932900  0.935100  1.0  -0.6294
  O  O165  1  0.526500  0.425900  0.664200  1.0  -0.6933
  O  O166  1  0.645500  0.531500  0.625400  1.0  -0.6476
  O  O167  1  0.717700  0.393500  0.788400  1.0  -0.6581
  O  O168  1  0.831800  0.495600  0.739100  1.0  -0.5852
  O  O169  1  0.732600  0.152700  0.946400  1.0  -0.6813
  O  O170  1  0.656500  0.287900  0.914100  1.0  -0.5912
  O  O171  1  0.719200  0.171200  0.786200  1.0  -0.7594
  O  O172  1  0.549800  0.613000  0.999400  1.0  -0.9006
