# generated using pymatgen
data_Ba3V2H4(C5O12)2
_symmetry_space_group_name_H-M   'P 1'
_cell_length_a   10.23540000
_cell_length_b   15.45500000
_cell_length_c   17.53600000
_cell_angle_alpha   90.00000000
_cell_angle_beta   98.71800000
_cell_angle_gamma   90.00000000
_symmetry_Int_Tables_number   1
_chemical_formula_structural   Ba3V2H4(C5O12)2
_chemical_formula_sum   'Ba12 V8 H16 C40 O96'
_cell_volume   2741.93688490
_cell_formula_units_Z   4
loop_
 _symmetry_equiv_pos_site_id
 _symmetry_equiv_pos_as_xyz
  1  'x, y, z'
loop_
 _atom_site_type_symbol
 _atom_site_label
 _atom_site_symmetry_multiplicity
 _atom_site_fract_x
 _atom_site_fract_y
 _atom_site_fract_z
 _atom_site_occupancy
 _atom_site_charge
  Ba  Ba1  1  0.180600  0.033340  0.450550  1.0  1.5928
  Ba  Ba2  1  0.680600  0.533340  0.450550  1.0  1.5929
  Ba  Ba3  1  0.819400  0.033340  0.049450  1.0  1.5921
  Ba  Ba4  1  0.319400  0.533340  0.049450  1.0  1.5921
  Ba  Ba5  1  0.819400  0.966660  0.549450  1.0  1.5925
  Ba  Ba6  1  0.319400  0.466660  0.549450  1.0  1.5925
  Ba  Ba7  1  0.180600  0.966660  0.950550  1.0  1.5895
  Ba  Ba8  1  0.680600  0.466660  0.950550  1.0  1.589
  Ba  Ba9  1  0.000000  0.218190  0.250000  1.0  1.5844
  Ba  Ba10  1  0.500000  0.718190  0.250000  1.0  1.5844
  Ba  Ba11  1  0.000000  0.781810  0.750000  1.0  1.5842
  Ba  Ba12  1  0.500000  0.281810  0.750000  1.0  1.5842
  V  V13  1  0.195150  0.400970  0.340850  1.0  1.9916
  V  V14  1  0.695150  0.900970  0.340850  1.0  1.9916
  V  V15  1  0.804850  0.400970  0.159150  1.0  1.9919
  V  V16  1  0.304850  0.900970  0.159150  1.0  1.9919
  V  V17  1  0.804850  0.599030  0.659150  1.0  1.9941
  V  V18  1  0.304850  0.099030  0.659150  1.0  1.9941
  V  V19  1  0.195150  0.599030  0.840850  1.0  1.9931
  V  V20  1  0.695150  0.099030  0.840850  1.0  1.9931
  H  H21  1  0.045000  0.845000  0.468000  1.0  0.4302
  H  H22  1  0.105000  0.848000  0.531000  1.0  0.4576
  H  H23  1  0.545000  0.345000  0.468000  1.0  0.4302
  H  H24  1  0.605000  0.348000  0.531000  1.0  0.4576
  H  H25  1  0.955000  0.845000  0.032000  1.0  0.4307
  H  H26  1  0.895000  0.848000  0.969000  1.0  0.4558
  H  H27  1  0.455000  0.345000  0.032000  1.0  0.4307
  H  H28  1  0.395000  0.348000  0.969000  1.0  0.4558
  H  H29  1  0.955000  0.155000  0.532000  1.0  0.4321
  H  H30  1  0.895000  0.152000  0.469000  1.0  0.4574
  H  H31  1  0.455000  0.655000  0.532000  1.0  0.4321
  H  H32  1  0.395000  0.652000  0.469000  1.0  0.4574
  H  H33  1  0.045000  0.155000  0.968000  1.0  0.432
  H  H34  1  0.105000  0.152000  0.031000  1.0  0.4591
  H  H35  1  0.545000  0.655000  0.968000  1.0  0.432
  H  H36  1  0.605000  0.652000  0.031000  1.0  0.4591
  C  C37  1  0.934800  0.421750  0.378770  1.0  0.5633
  C  C38  1  0.006000  0.505890  0.411080  1.0  0.5584
  C  C39  1  0.119100  0.027420  0.172770  1.0  0.619
  C  C40  1  0.235000  0.045270  0.238930  1.0  0.5505
  C  C41  1  0.218900  0.263790  0.458810  1.0  0.5458
  C  C42  1  0.434800  0.921750  0.378770  1.0  0.5633
  C  C43  1  0.506000  0.005890  0.411080  1.0  0.5584
  C  C44  1  0.619100  0.527420  0.172770  1.0  0.619
  C  C45  1  0.735000  0.545270  0.238930  1.0  0.5505
  C  C46  1  0.718900  0.763790  0.458810  1.0  0.5458
  C  C47  1  0.065200  0.421750  0.121230  1.0  0.5631
  C  C48  1  0.994000  0.505890  0.088920  1.0  0.5584
  C  C49  1  0.880900  0.027420  0.327230  1.0  0.6191
  C  C50  1  0.765000  0.045270  0.261070  1.0  0.5501
  C  C51  1  0.781100  0.263790  0.041190  1.0  0.5463
  C  C52  1  0.565200  0.921750  0.121230  1.0  0.5631
  C  C53  1  0.494000  0.005890  0.088920  1.0  0.5584
  C  C54  1  0.380900  0.527420  0.327230  1.0  0.6191
  C  C55  1  0.265000  0.545270  0.261070  1.0  0.5501
  C  C56  1  0.281100  0.763790  0.041190  1.0  0.5463
  C  C57  1  0.065200  0.578250  0.621230  1.0  0.5633
  C  C58  1  0.994000  0.494110  0.588920  1.0  0.558
  C  C59  1  0.880900  0.972580  0.827230  1.0  0.619
  C  C60  1  0.765000  0.954730  0.761070  1.0  0.549
  C  C61  1  0.781100  0.736210  0.541190  1.0  0.5461
  C  C62  1  0.565200  0.078250  0.621230  1.0  0.5633
  C  C63  1  0.494000  0.994110  0.588920  1.0  0.558
  C  C64  1  0.380900  0.472580  0.827230  1.0  0.619
  C  C65  1  0.265000  0.454730  0.761070  1.0  0.549
  C  C66  1  0.281100  0.236210  0.541190  1.0  0.5461
  C  C67  1  0.934800  0.578250  0.878770  1.0  0.5634
  C  C68  1  0.006000  0.494110  0.911080  1.0  0.5576
  C  C69  1  0.119100  0.972580  0.672770  1.0  0.6191
  C  C70  1  0.235000  0.954730  0.738930  1.0  0.5503
  C  C71  1  0.218900  0.736210  0.958810  1.0  0.5457
  C  C72  1  0.434800  0.078250  0.878770  1.0  0.5634
  C  C73  1  0.506000  0.994110  0.911080  1.0  0.5576
  C  C74  1  0.619100  0.472580  0.672770  1.0  0.6191
  C  C75  1  0.735000  0.454730  0.738930  1.0  0.5503
  C  C76  1  0.718900  0.236210  0.958810  1.0  0.5457
  O  O77  1  0.003620  0.372830  0.341020  1.0  -0.6607
  O  O78  1  0.822740  0.405200  0.392420  1.0  -0.6138
  O  O79  1  0.129680  0.505020  0.412160  1.0  -0.6563
  O  O80  1  0.939140  0.564330  0.434190  1.0  -0.6459
  O  O81  1  0.020630  0.073670  0.164610  1.0  -0.7103
  O  O82  1  0.133320  0.962250  0.129490  1.0  -0.6459
  O  O83  1  0.223500  0.103500  0.285060  1.0  -0.6562
  O  O84  1  0.333040  0.994400  0.239280  1.0  -0.5954
  O  O85  1  0.237010  0.343490  0.444360  1.0  -0.6642
  O  O86  1  0.158970  0.210160  0.414600  1.0  -0.5913
  O  O87  1  0.228430  0.320870  0.288770  1.0  -0.7743
  O  O88  1  0.061100  0.881670  0.499200  1.0  -0.8863
  O  O89  1  0.503620  0.872830  0.341020  1.0  -0.6607
  O  O90  1  0.322740  0.905200  0.392420  1.0  -0.6138
  O  O91  1  0.629680  0.005020  0.412160  1.0  -0.6563
  O  O92  1  0.439140  0.064330  0.434190  1.0  -0.6459
  O  O93  1  0.520630  0.573670  0.164610  1.0  -0.7103
  O  O94  1  0.633320  0.462250  0.129490  1.0  -0.6459
  O  O95  1  0.723500  0.603500  0.285060  1.0  -0.6562
  O  O96  1  0.833040  0.494400  0.239280  1.0  -0.5954
  O  O97  1  0.737010  0.843490  0.444360  1.0  -0.6642
  O  O98  1  0.658970  0.710160  0.414600  1.0  -0.5913
  O  O99  1  0.728430  0.820870  0.288770  1.0  -0.7743
  O  O100  1  0.561100  0.381670  0.499200  1.0  -0.8863
  O  O101  1  0.996380  0.372830  0.158980  1.0  -0.662
  O  O102  1  0.177260  0.405200  0.107580  1.0  -0.6142
  O  O103  1  0.870320  0.505020  0.087840  1.0  -0.6566
  O  O104  1  0.060860  0.564330  0.065810  1.0  -0.6454
  O  O105  1  0.979370  0.073670  0.335390  1.0  -0.7114
  O  O106  1  0.866680  0.962250  0.370510  1.0  -0.6439
  O  O107  1  0.776500  0.103500  0.214940  1.0  -0.6588
  O  O108  1  0.666960  0.994400  0.260720  1.0  -0.5958
  O  O109  1  0.762990  0.343490  0.055640  1.0  -0.6649
  O  O110  1  0.841030  0.210160  0.085400  1.0  -0.5906
  O  O111  1  0.771570  0.320870  0.211230  1.0  -0.7751
  O  O112  1  0.938900  0.881670  0.000800  1.0  -0.8866
  O  O113  1  0.496380  0.872830  0.158980  1.0  -0.662
  O  O114  1  0.677260  0.905200  0.107580  1.0  -0.6142
  O  O115  1  0.370320  0.005020  0.087840  1.0  -0.6566
  O  O116  1  0.560860  0.064330  0.065810  1.0  -0.6454
  O  O117  1  0.479370  0.573670  0.335390  1.0  -0.7114
  O  O118  1  0.366680  0.462250  0.370510  1.0  -0.6439
  O  O119  1  0.276500  0.603500  0.214940  1.0  -0.6588
  O  O120  1  0.166960  0.494400  0.260720  1.0  -0.5958
  O  O121  1  0.262990  0.843490  0.055640  1.0  -0.6649
  O  O122  1  0.341030  0.710160  0.085400  1.0  -0.5906
  O  O123  1  0.271570  0.820870  0.211230  1.0  -0.7751
  O  O124  1  0.438900  0.381670  0.000800  1.0  -0.8866
  O  O125  1  0.996380  0.627170  0.658980  1.0  -0.6629
  O  O126  1  0.177260  0.594800  0.607580  1.0  -0.6145
  O  O127  1  0.870320  0.494980  0.587840  1.0  -0.6564
  O  O128  1  0.060860  0.435670  0.565810  1.0  -0.6426
  O  O129  1  0.979370  0.926330  0.835390  1.0  -0.71
  O  O130  1  0.866680  0.037750  0.870510  1.0  -0.6445
  O  O131  1  0.776500  0.896500  0.714940  1.0  -0.6589
  O  O132  1  0.666960  0.005600  0.760720  1.0  -0.5957
  O  O133  1  0.762990  0.656510  0.555640  1.0  -0.6641
  O  O134  1  0.841030  0.789840  0.585400  1.0  -0.5917
  O  O135  1  0.771570  0.679130  0.711230  1.0  -0.7744
  O  O136  1  0.938900  0.118330  0.500800  1.0  -0.8872
  O  O137  1  0.496380  0.127170  0.658980  1.0  -0.6629
  O  O138  1  0.677260  0.094800  0.607580  1.0  -0.6145
  O  O139  1  0.370320  0.994980  0.587840  1.0  -0.6564
  O  O140  1  0.560860  0.935670  0.565810  1.0  -0.6426
  O  O141  1  0.479370  0.426330  0.835390  1.0  -0.71
  O  O142  1  0.366680  0.537750  0.870510  1.0  -0.6445
  O  O143  1  0.276500  0.396500  0.714940  1.0  -0.6589
  O  O144  1  0.166960  0.505600  0.760720  1.0  -0.5957
  O  O145  1  0.262990  0.156510  0.555640  1.0  -0.6641
  O  O146  1  0.341030  0.289840  0.585400  1.0  -0.5917
  O  O147  1  0.271570  0.179130  0.711230  1.0  -0.7744
  O  O148  1  0.438900  0.618330  0.500800  1.0  -0.8872
  O  O149  1  0.003620  0.627170  0.841020  1.0  -0.6624
  O  O150  1  0.822740  0.594800  0.892420  1.0  -0.6144
  O  O151  1  0.129680  0.494980  0.912160  1.0  -0.6552
  O  O152  1  0.939140  0.435670  0.934190  1.0  -0.6433
  O  O153  1  0.020630  0.926330  0.664610  1.0  -0.7101
  O  O154  1  0.133320  0.037750  0.629490  1.0  -0.6452
  O  O155  1  0.223500  0.896500  0.785060  1.0  -0.656
  O  O156  1  0.333040  0.005600  0.739280  1.0  -0.5956
  O  O157  1  0.237010  0.656510  0.944360  1.0  -0.6639
  O  O158  1  0.158970  0.789840  0.914600  1.0  -0.5917
  O  O159  1  0.228430  0.679130  0.788770  1.0  -0.7731
  O  O160  1  0.061100  0.118330  0.999200  1.0  -0.8868
  O  O161  1  0.503620  0.127170  0.841020  1.0  -0.6624
  O  O162  1  0.322740  0.094800  0.892420  1.0  -0.6144
  O  O163  1  0.629680  0.994980  0.912160  1.0  -0.6552
  O  O164  1  0.439140  0.935670  0.934190  1.0  -0.6433
  O  O165  1  0.520630  0.426330  0.664610  1.0  -0.7101
  O  O166  1  0.633320  0.537750  0.629490  1.0  -0.6452
  O  O167  1  0.723500  0.396500  0.785060  1.0  -0.656
  O  O168  1  0.833040  0.505600  0.739280  1.0  -0.5956
  O  O169  1  0.737010  0.156510  0.944360  1.0  -0.6639
  O  O170  1  0.658970  0.289840  0.914600  1.0  -0.5917
  O  O171  1  0.728430  0.179130  0.788770  1.0  -0.7731
  O  O172  1  0.561100  0.618330  0.999200  1.0  -0.8868
