# generated using pymatgen
data_Al3C16N2O15
_symmetry_space_group_name_H-M   'P 1'
_cell_length_a   37.13300000
_cell_length_b   11.52780000
_cell_length_c   6.51550000
_cell_angle_alpha   90.00000000
_cell_angle_beta   109.26600000
_cell_angle_gamma   90.00000000
_symmetry_Int_Tables_number   1
_chemical_formula_structural   Al3C16N2O15
_chemical_formula_sum   'Al12 C64 N8 O60'
_cell_volume   2632.84198931
_cell_formula_units_Z   4
loop_
 _symmetry_equiv_pos_site_id
 _symmetry_equiv_pos_as_xyz
  1  'x, y, z'
loop_
 _atom_site_type_symbol
 _atom_site_label
 _atom_site_symmetry_multiplicity
 _atom_site_fract_x
 _atom_site_fract_y
 _atom_site_fract_z
 _atom_site_occupancy
 _atom_site_charge
  Al  Al1  1  0.220900  0.283700  0.571000  1.0  1.916
  Al  Al2  1  0.720900  0.783700  0.571000  1.0  1.9193
  Al  Al3  1  0.779100  0.283700  0.929000  1.0  1.9196
  Al  Al4  1  0.279100  0.783700  0.929000  1.0  1.9195
  Al  Al5  1  0.779100  0.716300  0.429000  1.0  1.9215
  Al  Al6  1  0.279100  0.216300  0.429000  1.0  1.9215
  Al  Al7  1  0.220900  0.716300  0.071000  1.0  1.9189
  Al  Al8  1  0.720900  0.216300  0.071000  1.0  1.9221
  Al  Al9  1  0.000000  0.000000  0.000000  1.0  1.8112
  Al  Al10  1  0.500000  0.500000  0.000000  1.0  1.8112
  Al  Al11  1  0.000000  0.000000  0.500000  1.0  1.8117
  Al  Al12  1  0.500000  0.500000  0.500000  1.0  1.8116
  C  C13  1  0.158500  0.401000  0.252000  1.0  0.592
  C  C14  1  0.141700  0.296000  0.326000  1.0  0.0924
  C  C15  1  0.102800  0.256000  0.265000  1.0  0.0388
  C  C16  1  0.092800  0.185000  0.410000  1.0  -0.0753
  C  C17  1  0.121000  0.128000  0.581000  1.0  0.0345
  C  C18  1  0.159400  0.158000  0.621000  1.0  0.0208
  C  C19  1  0.195000  0.113000  0.798000  1.0  0.6425
  C  C20  1  0.052700  0.131000  0.336000  1.0  0.6239
  C  C21  1  0.658500  0.901000  0.252000  1.0  0.5914
  C  C22  1  0.641700  0.796000  0.326000  1.0  0.0919
  C  C23  1  0.602800  0.756000  0.265000  1.0  0.0373
  C  C24  1  0.592800  0.685000  0.410000  1.0  -0.0753
  C  C25  1  0.621000  0.628000  0.581000  1.0  0.0341
  C  C26  1  0.659400  0.658000  0.621000  1.0  0.0218
  C  C27  1  0.695000  0.613000  0.798000  1.0  0.6428
  C  C28  1  0.552700  0.631000  0.336000  1.0  0.6239
  C  C29  1  0.841500  0.401000  0.248000  1.0  0.5906
  C  C30  1  0.858300  0.296000  0.174000  1.0  0.0928
  C  C31  1  0.897200  0.256000  0.235000  1.0  0.0347
  C  C32  1  0.907200  0.185000  0.090000  1.0  -0.0752
  C  C33  1  0.879000  0.128000  0.919000  1.0  0.0357
  C  C34  1  0.840600  0.158000  0.879000  1.0  0.0216
  C  C35  1  0.805000  0.113000  0.702000  1.0  0.6428
  C  C36  1  0.947300  0.131000  0.164000  1.0  0.6253
  C  C37  1  0.341500  0.901000  0.248000  1.0  0.5906
  C  C38  1  0.358300  0.796000  0.174000  1.0  0.0928
  C  C39  1  0.397200  0.756000  0.235000  1.0  0.0347
  C  C40  1  0.407200  0.685000  0.090000  1.0  -0.0752
  C  C41  1  0.379000  0.628000  0.919000  1.0  0.0357
  C  C42  1  0.340600  0.658000  0.879000  1.0  0.0216
  C  C43  1  0.305000  0.613000  0.702000  1.0  0.6428
  C  C44  1  0.447300  0.631000  0.164000  1.0  0.6253
  C  C45  1  0.841500  0.599000  0.748000  1.0  0.5926
  C  C46  1  0.858300  0.704000  0.674000  1.0  0.0934
  C  C47  1  0.897200  0.744000  0.735000  1.0  0.0333
  C  C48  1  0.907200  0.815000  0.590000  1.0  -0.0754
  C  C49  1  0.879000  0.872000  0.419000  1.0  0.0326
  C  C50  1  0.840600  0.842000  0.379000  1.0  0.0218
  C  C51  1  0.805000  0.887000  0.202000  1.0  0.643
  C  C52  1  0.947300  0.869000  0.664000  1.0  0.6251
  C  C53  1  0.341500  0.099000  0.748000  1.0  0.5926
  C  C54  1  0.358300  0.204000  0.674000  1.0  0.0934
  C  C55  1  0.397200  0.244000  0.735000  1.0  0.0333
  C  C56  1  0.407200  0.315000  0.590000  1.0  -0.0754
  C  C57  1  0.379000  0.372000  0.419000  1.0  0.0326
  C  C58  1  0.340600  0.342000  0.379000  1.0  0.0218
  C  C59  1  0.305000  0.387000  0.202000  1.0  0.643
  C  C60  1  0.447300  0.369000  0.664000  1.0  0.6251
  C  C61  1  0.158500  0.599000  0.752000  1.0  0.5919
  C  C62  1  0.141700  0.704000  0.826000  1.0  0.0925
  C  C63  1  0.102800  0.744000  0.765000  1.0  0.0375
  C  C64  1  0.092800  0.815000  0.910000  1.0  -0.0753
  C  C65  1  0.121000  0.872000  0.081000  1.0  0.0329
  C  C66  1  0.159400  0.842000  0.121000  1.0  0.0204
  C  C67  1  0.195000  0.887000  0.298000  1.0  0.6423
  C  C68  1  0.052700  0.869000  0.836000  1.0  0.6242
  C  C69  1  0.658500  0.099000  0.752000  1.0  0.5913
  C  C70  1  0.641700  0.204000  0.826000  1.0  0.092
  C  C71  1  0.602800  0.244000  0.765000  1.0  0.0362
  C  C72  1  0.592800  0.315000  0.910000  1.0  -0.0753
  C  C73  1  0.621000  0.372000  0.081000  1.0  0.0325
  C  C74  1  0.659400  0.342000  0.121000  1.0  0.0214
  C  C75  1  0.695000  0.387000  0.298000  1.0  0.6426
  C  C76  1  0.552700  0.369000  0.836000  1.0  0.6242
  N  N77  1  0.166600  0.248000  0.502000  1.0  -0.3693
  N  N78  1  0.666667  0.748000  0.502000  1.0  -0.3699
  N  N79  1  0.833400  0.248000  0.998000  1.0  -0.3702
  N  N80  1  0.333400  0.748000  0.998000  1.0  -0.3699
  N  N81  1  0.833400  0.752000  0.498000  1.0  -0.3699
  N  N82  1  0.333400  0.252000  0.498000  1.0  -0.3696
  N  N83  1  0.166600  0.752000  0.002000  1.0  -0.3683
  N  N84  1  0.666667  0.252000  0.002000  1.0  -0.3689
  O  O85  1  0.194100  0.394800  0.354000  1.0  -0.5989
  O  O86  1  0.135900  0.450800  0.091000  1.0  -0.4781
  O  O87  1  0.226800  0.169800  0.810000  1.0  -0.5231
  O  O88  1  0.195900  0.027000  0.919000  1.0  -0.5314
  O  O89  1  0.034800  0.124700  0.128000  1.0  -0.5974
  O  O90  1  0.042300  0.093900  0.495000  1.0  -0.5769
  O  O91  1  0.229500  0.178400  0.382000  1.0  -0.727
  O  O92  1  0.694100  0.894800  0.354000  1.0  -0.5993
  O  O93  1  0.635900  0.950800  0.091000  1.0  -0.4782
  O  O94  1  0.726800  0.669800  0.810000  1.0  -0.523
  O  O95  1  0.695900  0.527000  0.919000  1.0  -0.5316
  O  O96  1  0.534800  0.624700  0.128000  1.0  -0.5974
  O  O97  1  0.542300  0.593900  0.495000  1.0  -0.5769
  O  O98  1  0.729500  0.678400  0.382000  1.0  -0.7274
  O  O99  1  0.805900  0.394800  0.146000  1.0  -0.5974
  O  O100  1  0.864100  0.450800  0.409000  1.0  -0.4775
  O  O101  1  0.773200  0.169800  0.690000  1.0  -0.5245
  O  O102  1  0.804100  0.027000  0.581000  1.0  -0.5322
  O  O103  1  0.965200  0.124700  0.372000  1.0  -0.5967
  O  O104  1  0.957700  0.093900  0.005000  1.0  -0.5772
  O  O105  1  0.770500  0.178400  0.118000  1.0  -0.7252
  O  O106  1  0.305900  0.894800  0.146000  1.0  -0.5974
  O  O107  1  0.364100  0.950800  0.409000  1.0  -0.4775
  O  O108  1  0.273200  0.669800  0.690000  1.0  -0.5244
  O  O109  1  0.304100  0.527000  0.581000  1.0  -0.5322
  O  O110  1  0.465200  0.624700  0.372000  1.0  -0.5967
  O  O111  1  0.457700  0.593900  0.005000  1.0  -0.5772
  O  O112  1  0.270500  0.678400  0.118000  1.0  -0.7252
  O  O113  1  0.805900  0.605200  0.646000  1.0  -0.5961
  O  O114  1  0.864100  0.549200  0.909000  1.0  -0.4771
  O  O115  1  0.773200  0.830200  0.190000  1.0  -0.5243
  O  O116  1  0.804100  0.973000  0.081000  1.0  -0.5328
  O  O117  1  0.965200  0.875300  0.872000  1.0  -0.5966
  O  O118  1  0.957700  0.906100  0.505000  1.0  -0.5781
  O  O119  1  0.770500  0.821600  0.618000  1.0  -0.7248
  O  O120  1  0.305900  0.105200  0.646000  1.0  -0.5961
  O  O121  1  0.364100  0.049200  0.909000  1.0  -0.4771
  O  O122  1  0.273200  0.330200  0.190000  1.0  -0.5242
  O  O123  1  0.304100  0.473000  0.081000  1.0  -0.5328
  O  O124  1  0.465200  0.375300  0.872000  1.0  -0.5966
  O  O125  1  0.457700  0.406100  0.505000  1.0  -0.5781
  O  O126  1  0.270500  0.321600  0.618000  1.0  -0.7248
  O  O127  1  0.194100  0.605200  0.854000  1.0  -0.5971
  O  O128  1  0.135900  0.549200  0.591000  1.0  -0.478
  O  O129  1  0.226800  0.830200  0.310000  1.0  -0.5232
  O  O130  1  0.195900  0.973000  0.419000  1.0  -0.5321
  O  O131  1  0.034800  0.875300  0.628000  1.0  -0.5965
  O  O132  1  0.042300  0.906100  0.995000  1.0  -0.5771
  O  O133  1  0.229500  0.821600  0.882000  1.0  -0.7268
  O  O134  1  0.694100  0.105200  0.854000  1.0  -0.5975
  O  O135  1  0.635900  0.049200  0.591000  1.0  -0.478
  O  O136  1  0.726800  0.330200  0.310000  1.0  -0.5231
  O  O137  1  0.695900  0.473000  0.419000  1.0  -0.5323
  O  O138  1  0.534800  0.375300  0.628000  1.0  -0.5965
  O  O139  1  0.542300  0.406100  0.995000  1.0  -0.5771
  O  O140  1  0.729500  0.321600  0.882000  1.0  -0.727
  O  O141  1  0.000000  0.924000  0.250000  1.0  -0.7851
  O  O142  1  0.500000  0.424000  0.250000  1.0  -0.7851
  O  O143  1  0.000000  0.076000  0.750000  1.0  -0.7832
  O  O144  1  0.500000  0.576000  0.750000  1.0  -0.7831
