# generated using pymatgen
data_CoH32C47N6O5
_symmetry_space_group_name_H-M   'P 1'
_cell_length_a   14.86700000
_cell_length_b   32.32300000
_cell_length_c   9.17920000
_cell_angle_alpha   90.00000000
_cell_angle_beta   104.26000000
_cell_angle_gamma   90.00000000
_symmetry_Int_Tables_number   1
_chemical_formula_structural   CoH32C47N6O5
_chemical_formula_sum   'Co4 H128 C188 N24 O20'
_cell_volume   4275.11532291
_cell_formula_units_Z   4
loop_
 _symmetry_equiv_pos_site_id
 _symmetry_equiv_pos_as_xyz
  1  'x, y, z'
loop_
 _atom_site_type_symbol
 _atom_site_label
 _atom_site_symmetry_multiplicity
 _atom_site_fract_x
 _atom_site_fract_y
 _atom_site_fract_z
 _atom_site_occupancy
 _atom_site_charge
  Co  Co1  1  0.193460  0.124840  0.381810  1.0  0.9354
  Co  Co2  1  0.806540  0.624840  0.118190  1.0  0.9358
  Co  Co3  1  0.806540  0.875160  0.618190  1.0  0.9366
  Co  Co4  1  0.193460  0.375160  0.881810  1.0  0.9359
  H  H5  1  0.368800  0.173400  0.296900  1.0  0.1043
  H  H6  1  0.137100  0.139200  0.017300  1.0  0.1048
  H  H7  1  0.243600  0.161800  0.865500  1.0  0.1267
  H  H8  1  0.344200  0.226700  0.860900  1.0  0.1161
  H  H9  1  0.471400  0.260700  0.820200  1.0  0.0774
  H  H10  1  0.637600  0.198100  0.152600  1.0  0.0946
  H  H11  1  0.512100  0.160900  0.188100  1.0  0.1192
  H  H12  1  0.593300  0.311800  0.040800  1.0  0.1
  H  H13  1  0.831600  0.332800  0.925000  1.0  0.0969
  H  H14  1  0.723100  0.218800  0.888300  1.0  0.1032
  H  H15  1  0.859900  0.197300  0.871200  1.0  0.1046
  H  H16  1  0.981500  0.174900  0.776000  1.0  0.1254
  H  H17  1  0.017100  0.290800  0.646500  1.0  0.1014
  H  H18  1  0.901200  0.313500  0.752800  1.0  0.1029
  H  H19  1  0.032300  0.160300  0.541300  1.0  0.1003
  H  H20  1  0.254100  0.218900  0.505700  1.0  0.0936
  H  H21  1  0.173800  0.264100  0.645800  1.0  0.1225
  H  H22  1  0.851300  0.379400  0.131600  1.0  0.1075
  H  H23  1  0.848800  0.448700  0.193100  1.0  0.1082
  H  H24  1  0.572900  0.451500  0.033700  1.0  0.1013
  H  H25  1  0.574700  0.382900  0.968400  1.0  0.0979
  H  H26  1  0.824600  0.523200  0.100800  1.0  0.0883
  H  H27  1  0.641100  0.580300  0.265200  1.0  0.0973
  H  H28  1  0.593800  0.508300  0.231900  1.0  0.1295
  H  H29  1  0.916500  0.104000  0.007900  1.0  0.1114
  H  H30  1  0.763300  0.085600  0.916000  1.0  0.0818
  H  H31  1  0.741600  0.055800  0.323300  1.0  0.0943
  H  H32  1  0.901500  0.066700  0.416900  1.0  0.0986
  H  H33  1  0.647000  0.129900  0.957400  1.0  0.1001
  H  H34  1  0.533000  0.160900  0.771300  1.0  0.0913
  H  H35  1  0.388800  0.054500  0.715800  1.0  0.1068
  H  H36  1  0.506900  0.024300  0.904100  1.0  0.1038
  H  H37  1  0.631200  0.673400  0.203100  1.0  0.1025
  H  H38  1  0.862900  0.639200  0.482700  1.0  0.1049
  H  H39  1  0.756400  0.661800  0.634500  1.0  0.1273
  H  H40  1  0.655800  0.726700  0.639100  1.0  0.1158
  H  H41  1  0.528600  0.760700  0.679800  1.0  0.078
  H  H42  1  0.362400  0.698100  0.347400  1.0  0.0947
  H  H43  1  0.487900  0.660900  0.311900  1.0  0.1185
  H  H44  1  0.406700  0.811800  0.459200  1.0  0.0999
  H  H45  1  0.168400  0.832800  0.575000  1.0  0.0968
  H  H46  1  0.276900  0.718800  0.611700  1.0  0.1031
  H  H47  1  0.140100  0.697300  0.628800  1.0  0.1042
  H  H48  1  0.018500  0.674900  0.724000  1.0  0.1248
  H  H49  1  0.982900  0.790800  0.853500  1.0  0.1013
  H  H50  1  0.098800  0.813500  0.747200  1.0  0.1026
  H  H51  1  0.967700  0.660300  0.958700  1.0  0.1004
  H  H52  1  0.745900  0.718900  0.994300  1.0  0.0939
  H  H53  1  0.826200  0.764100  0.854200  1.0  0.1223
  H  H54  1  0.148700  0.879400  0.368400  1.0  0.1078
  H  H55  1  0.151200  0.948700  0.306900  1.0  0.109
  H  H56  1  0.427100  0.951500  0.466300  1.0  0.1019
  H  H57  1  0.425300  0.882900  0.531600  1.0  0.0986
  H  H58  1  0.175400  0.023200  0.399200  1.0  0.0888
  H  H59  1  0.358900  0.080300  0.234800  1.0  0.0972
  H  H60  1  0.406200  0.008300  0.268100  1.0  0.129
  H  H61  1  0.083500  0.604000  0.492100  1.0  0.1117
  H  H62  1  0.236700  0.585600  0.584000  1.0  0.0824
  H  H63  1  0.258400  0.555800  0.176700  1.0  0.0947
  H  H64  1  0.098500  0.566700  0.083100  1.0  0.0994
  H  H65  1  0.353000  0.629900  0.542600  1.0  0.1001
  H  H66  1  0.467000  0.660900  0.728700  1.0  0.0915
  H  H67  1  0.611200  0.554500  0.784200  1.0  0.1064
  H  H68  1  0.493100  0.524300  0.595900  1.0  0.1034
  H  H69  1  0.631200  0.826600  0.703100  1.0  0.1021
  H  H70  1  0.862900  0.860800  0.982700  1.0  0.1052
  H  H71  1  0.756400  0.838200  0.134500  1.0  0.1271
  H  H72  1  0.655800  0.773300  0.139100  1.0  0.116
  H  H73  1  0.528600  0.739300  0.179800  1.0  0.0784
  H  H74  1  0.362400  0.801900  0.847400  1.0  0.0948
  H  H75  1  0.487900  0.839100  0.811900  1.0  0.1193
  H  H76  1  0.406700  0.688200  0.959200  1.0  0.0998
  H  H77  1  0.168400  0.667200  0.075000  1.0  0.0967
  H  H78  1  0.276900  0.781200  0.111700  1.0  0.1034
  H  H79  1  0.140100  0.802700  0.128800  1.0  0.1047
  H  H80  1  0.018500  0.825100  0.224000  1.0  0.126
  H  H81  1  0.982900  0.709200  0.353500  1.0  0.1013
  H  H82  1  0.098800  0.686500  0.247200  1.0  0.1026
  H  H83  1  0.967700  0.839700  0.458700  1.0  0.1006
  H  H84  1  0.745900  0.781100  0.494300  1.0  0.0937
  H  H85  1  0.826200  0.735900  0.354200  1.0  0.1218
  H  H86  1  0.148700  0.620600  0.868400  1.0  0.1072
  H  H87  1  0.151200  0.551300  0.806900  1.0  0.1087
  H  H88  1  0.427100  0.548500  0.966300  1.0  0.102
  H  H89  1  0.425300  0.617100  0.031600  1.0  0.0985
  H  H90  1  0.175400  0.476800  0.899200  1.0  0.0886
  H  H91  1  0.358900  0.419700  0.734800  1.0  0.0976
  H  H92  1  0.406200  0.491700  0.768100  1.0  0.1289
  H  H93  1  0.083500  0.896000  0.992100  1.0  0.1114
  H  H94  1  0.236700  0.914400  0.084000  1.0  0.0823
  H  H95  1  0.258400  0.944200  0.676700  1.0  0.0949
  H  H96  1  0.098500  0.933300  0.583100  1.0  0.0988
  H  H97  1  0.353000  0.870100  0.042600  1.0  0.0997
  H  H98  1  0.467000  0.839100  0.228700  1.0  0.0915
  H  H99  1  0.611200  0.945500  0.284200  1.0  0.1069
  H  H100  1  0.493100  0.975700  0.095900  1.0  0.1031
  H  H101  1  0.368800  0.326600  0.796900  1.0  0.1039
  H  H102  1  0.137100  0.360800  0.517300  1.0  0.1054
  H  H103  1  0.243600  0.338200  0.365500  1.0  0.1271
  H  H104  1  0.344200  0.273300  0.360900  1.0  0.1161
  H  H105  1  0.471400  0.239300  0.320200  1.0  0.0775
  H  H106  1  0.637600  0.301900  0.652600  1.0  0.0946
  H  H107  1  0.512100  0.339100  0.688100  1.0  0.1193
  H  H108  1  0.593300  0.188200  0.540800  1.0  0.1003
  H  H109  1  0.831600  0.167200  0.425000  1.0  0.097
  H  H110  1  0.723100  0.281200  0.388300  1.0  0.1036
  H  H111  1  0.859900  0.302700  0.371200  1.0  0.1047
  H  H112  1  0.981500  0.325100  0.276000  1.0  0.1258
  H  H113  1  0.017100  0.209200  0.146500  1.0  0.1009
  H  H114  1  0.901200  0.186500  0.252800  1.0  0.1023
  H  H115  1  0.032300  0.339700  0.041300  1.0  0.1007
  H  H116  1  0.254100  0.281100  0.005700  1.0  0.0935
  H  H117  1  0.173800  0.235900  0.145800  1.0  0.1223
  H  H118  1  0.851300  0.120600  0.631600  1.0  0.1073
  H  H119  1  0.848800  0.051300  0.693100  1.0  0.1083
  H  H120  1  0.572900  0.048500  0.533700  1.0  0.1012
  H  H121  1  0.574700  0.117100  0.468400  1.0  0.0977
  H  H122  1  0.824600  0.976800  0.600800  1.0  0.0882
  H  H123  1  0.641100  0.919700  0.765200  1.0  0.0975
  H  H124  1  0.593800  0.991700  0.731900  1.0  0.1298
  H  H125  1  0.916500  0.396000  0.507900  1.0  0.1111
  H  H126  1  0.763300  0.414400  0.416000  1.0  0.0818
  H  H127  1  0.741600  0.444200  0.823300  1.0  0.0949
  H  H128  1  0.901500  0.433300  0.916900  1.0  0.0986
  H  H129  1  0.647000  0.370100  0.457400  1.0  0.1003
  H  H130  1  0.533000  0.339100  0.271300  1.0  0.0911
  H  H131  1  0.388800  0.445500  0.215800  1.0  0.1068
  H  H132  1  0.506900  0.475700  0.404100  1.0  0.1035
  C  C133  1  0.324100  0.167500  0.209000  1.0  0.1517
  C  C134  1  0.197300  0.148900  0.054800  1.0  -0.001
  C  C135  1  0.255800  0.161400  0.969800  1.0  -0.1131
  C  C136  1  0.415200  0.192400  0.034300  1.0  0.1115
  C  C137  1  0.403100  0.221100  0.921000  1.0  -0.2064
  C  C138  1  0.479700  0.241500  0.897900  1.0  -0.1197
  C  C139  1  0.568800  0.234700  0.985600  1.0  0.026
  C  C140  1  0.578600  0.204100  0.093800  1.0  -0.109
  C  C141  1  0.503500  0.182100  0.117700  1.0  -0.1903
  C  C142  1  0.648800  0.260900  0.967600  1.0  -0.0102
  C  C143  1  0.643500  0.302500  0.006000  1.0  -0.1489
  C  C144  1  0.712800  0.330300  0.992700  1.0  0.0467
  C  C145  1  0.785100  0.314700  0.935600  1.0  -0.1192
  C  C146  1  0.791400  0.273200  0.893400  1.0  0.0145
  C  C147  1  0.721000  0.246600  0.912900  1.0  -0.0719
  C  C148  1  0.866300  0.258300  0.824900  1.0  0.045
  C  C149  1  0.892000  0.216500  0.827600  1.0  -0.0941
  C  C150  1  0.963800  0.202500  0.767500  1.0  -0.2147
  C  C151  1  0.008000  0.230200  0.695300  1.0  0.1275
  C  C152  1  0.985300  0.271900  0.691900  1.0  -0.1521
  C  C153  1  0.915600  0.285500  0.755900  1.0  -0.1132
  C  C154  1  0.078500  0.180200  0.551200  1.0  0.1477
  C  C155  1  0.199000  0.212500  0.531200  1.0  0.0735
  C  C156  1  0.155500  0.237800  0.609900  1.0  -0.1484
  C  C157  1  0.712100  0.373900  0.036700  1.0  0.0114
  C  C158  1  0.795500  0.393900  0.109100  1.0  -0.1467
  C  C159  1  0.793600  0.435500  0.146400  1.0  -0.1345
  C  C160  1  0.711100  0.457900  0.115500  1.0  0.1391
  C  C161  1  0.629100  0.437400  0.051000  1.0  -0.1861
  C  C162  1  0.630400  0.396100  0.012200  1.0  -0.0931
  C  C163  1  0.773500  0.529000  0.138700  1.0  0.1676
  C  C164  1  0.672900  0.559700  0.227700  1.0  0.0523
  C  C165  1  0.646200  0.520000  0.210300  1.0  -0.1491
  C  C166  1  0.025300  0.100300  0.288300  1.0  0.6366
  C  C167  1  0.925300  0.089100  0.224100  1.0  -0.1229
  C  C168  1  0.883000  0.093600  0.073000  1.0  -0.0962
  C  C169  1  0.790200  0.082600  0.018200  1.0  -0.1607
  C  C170  1  0.737300  0.067600  0.107200  1.0  0.3187
  C  C171  1  0.777500  0.063900  0.258500  1.0  -0.1142
  C  C172  1  0.873400  0.072400  0.316700  1.0  -0.0522
  C  C173  1  0.586400  0.075000  0.949000  1.0  0.315
  C  C174  1  0.595000  0.114800  0.909300  1.0  -0.2092
  C  C175  1  0.526500  0.133400  0.796700  1.0  -0.0558
  C  C176  1  0.447800  0.111100  0.721500  1.0  -0.1044
  C  C177  1  0.440300  0.070100  0.763000  1.0  -0.0498
  C  C178  1  0.511400  0.051900  0.877700  1.0  -0.142
  C  C179  1  0.375100  0.132100  0.595000  1.0  0.6509
  C  C180  1  0.675900  0.667500  0.291000  1.0  0.1516
  C  C181  1  0.802700  0.648900  0.445200  1.0  -0.0006
  C  C182  1  0.744200  0.661400  0.530200  1.0  -0.1119
  C  C183  1  0.584800  0.692400  0.465700  1.0  0.1121
  C  C184  1  0.596900  0.721100  0.579000  1.0  -0.2075
  C  C185  1  0.520300  0.741500  0.602100  1.0  -0.1203
  C  C186  1  0.431200  0.734700  0.514400  1.0  0.0258
  C  C187  1  0.421400  0.704100  0.406200  1.0  -0.1075
  C  C188  1  0.496500  0.682100  0.382300  1.0  -0.1891
  C  C189  1  0.351200  0.760900  0.532400  1.0  -0.0098
  C  C190  1  0.356500  0.802500  0.494000  1.0  -0.1492
  C  C191  1  0.287200  0.830300  0.507300  1.0  0.0469
  C  C192  1  0.214900  0.814700  0.564400  1.0  -0.1198
  C  C193  1  0.208600  0.773200  0.606600  1.0  0.015
  C  C194  1  0.279000  0.746600  0.587100  1.0  -0.0712
  C  C195  1  0.133700  0.758300  0.675100  1.0  0.0447
  C  C196  1  0.108000  0.716500  0.672400  1.0  -0.0948
  C  C197  1  0.036200  0.702500  0.732500  1.0  -0.2171
  C  C198  1  0.992000  0.730200  0.804700  1.0  0.1282
  C  C199  1  0.014700  0.771900  0.808100  1.0  -0.1517
  C  C200  1  0.084400  0.785500  0.744100  1.0  -0.112
  C  C201  1  0.921500  0.680200  0.948800  1.0  0.1479
  C  C202  1  0.801000  0.712500  0.968800  1.0  0.0728
  C  C203  1  0.844500  0.737800  0.890100  1.0  -0.1476
  C  C204  1  0.287900  0.873900  0.463300  1.0  0.0113
  C  C205  1  0.204500  0.893900  0.390900  1.0  -0.1463
  C  C206  1  0.206400  0.935500  0.353600  1.0  -0.1343
  C  C207  1  0.288900  0.957900  0.384500  1.0  0.1381
  C  C208  1  0.370900  0.937400  0.449000  1.0  -0.1878
  C  C209  1  0.369600  0.896100  0.487800  1.0  -0.0937
  C  C210  1  0.226500  0.029000  0.361300  1.0  0.1681
  C  C211  1  0.327100  0.059700  0.272300  1.0  0.0516
  C  C212  1  0.353800  0.020000  0.289700  1.0  -0.1472
  C  C213  1  0.974700  0.600300  0.211700  1.0  0.6364
  C  C214  1  0.074700  0.589100  0.275900  1.0  -0.1239
  C  C215  1  0.117000  0.593600  0.427000  1.0  -0.0967
  C  C216  1  0.209800  0.582600  0.481800  1.0  -0.1593
  C  C217  1  0.262700  0.567600  0.392800  1.0  0.3191
  C  C218  1  0.222500  0.563900  0.241500  1.0  -0.1152
  C  C219  1  0.126600  0.572400  0.183300  1.0  -0.0522
  C  C220  1  0.413600  0.575000  0.551000  1.0  0.3139
  C  C221  1  0.405000  0.614800  0.590700  1.0  -0.211
  C  C222  1  0.473500  0.633400  0.703300  1.0  -0.056
  C  C223  1  0.552200  0.611100  0.778500  1.0  -0.1038
  C  C224  1  0.559700  0.570100  0.737000  1.0  -0.0507
  C  C225  1  0.488600  0.551900  0.622300  1.0  -0.1411
  C  C226  1  0.624900  0.632100  0.905000  1.0  0.651
  C  C227  1  0.675900  0.832500  0.791000  1.0  0.1519
  C  C228  1  0.802700  0.851100  0.945200  1.0  -0.0005
  C  C229  1  0.744200  0.838600  0.030200  1.0  -0.1118
  C  C230  1  0.584800  0.807600  0.965700  1.0  0.1113
  C  C231  1  0.596900  0.778900  0.079000  1.0  -0.2076
  C  C232  1  0.520300  0.758500  0.102100  1.0  -0.121
  C  C233  1  0.431200  0.765300  0.014400  1.0  0.0255
  C  C234  1  0.421400  0.795900  0.906200  1.0  -0.1079
  C  C235  1  0.496500  0.817900  0.882300  1.0  -0.1898
  C  C236  1  0.351200  0.739100  0.032400  1.0  -0.0098
  C  C237  1  0.356500  0.697500  0.994000  1.0  -0.1495
  C  C238  1  0.287200  0.669700  0.007300  1.0  0.0465
  C  C239  1  0.214900  0.685300  0.064400  1.0  -0.1191
  C  C240  1  0.208600  0.726800  0.106600  1.0  0.0152
  C  C241  1  0.279000  0.753400  0.087100  1.0  -0.0725
  C  C242  1  0.133700  0.741700  0.175100  1.0  0.0446
  C  C243  1  0.108000  0.783500  0.172400  1.0  -0.0943
  C  C244  1  0.036200  0.797500  0.232500  1.0  -0.2148
  C  C245  1  0.992000  0.769800  0.304700  1.0  0.1279
  C  C246  1  0.014700  0.728100  0.308100  1.0  -0.1521
  C  C247  1  0.084400  0.714500  0.244100  1.0  -0.1109
  C  C248  1  0.921500  0.819800  0.448800  1.0  0.1464
  C  C249  1  0.801000  0.787500  0.468800  1.0  0.0727
  C  C250  1  0.844500  0.762200  0.390100  1.0  -0.1482
  C  C251  1  0.287900  0.626100  0.963300  1.0  0.0116
  C  C252  1  0.204500  0.606100  0.890900  1.0  -0.1463
  C  C253  1  0.206400  0.564500  0.853600  1.0  -0.134
  C  C254  1  0.288900  0.542100  0.884500  1.0  0.1378
  C  C255  1  0.370900  0.562600  0.949000  1.0  -0.1873
  C  C256  1  0.369600  0.603900  0.987800  1.0  -0.093
  C  C257  1  0.226500  0.471000  0.861300  1.0  0.1678
  C  C258  1  0.327100  0.440300  0.772300  1.0  0.052
  C  C259  1  0.353800  0.480000  0.789700  1.0  -0.1478
  C  C260  1  0.974700  0.899700  0.711700  1.0  0.636
  C  C261  1  0.074700  0.910900  0.775900  1.0  -0.1231
  C  C262  1  0.117000  0.906400  0.927000  1.0  -0.0968
  C  C263  1  0.209800  0.917400  0.981800  1.0  -0.1595
  C  C264  1  0.262700  0.932400  0.892800  1.0  0.3204
  C  C265  1  0.222500  0.936100  0.741500  1.0  -0.1142
  C  C266  1  0.126600  0.927600  0.683300  1.0  -0.0527
  C  C267  1  0.413600  0.925000  0.051000  1.0  0.3148
  C  C268  1  0.405000  0.885200  0.090700  1.0  -0.2108
  C  C269  1  0.473500  0.866600  0.203300  1.0  -0.0566
  C  C270  1  0.552200  0.888900  0.278500  1.0  -0.1039
  C  C271  1  0.559700  0.929900  0.237000  1.0  -0.0502
  C  C272  1  0.488600  0.948100  0.122300  1.0  -0.1426
  C  C273  1  0.624900  0.867900  0.405000  1.0  0.6505
  C  C274  1  0.324100  0.332500  0.709000  1.0  0.1518
  C  C275  1  0.197300  0.351100  0.554800  1.0  -0.0003
  C  C276  1  0.255800  0.338600  0.469800  1.0  -0.1126
  C  C277  1  0.415200  0.307600  0.534300  1.0  0.1108
  C  C278  1  0.403100  0.278900  0.421000  1.0  -0.2062
  C  C279  1  0.479700  0.258500  0.397900  1.0  -0.1204
  C  C280  1  0.568800  0.265300  0.485600  1.0  0.0258
  C  C281  1  0.578600  0.295900  0.593800  1.0  -0.1097
  C  C282  1  0.503500  0.317900  0.617700  1.0  -0.1914
  C  C283  1  0.648800  0.239100  0.467600  1.0  -0.0103
  C  C284  1  0.643500  0.197500  0.506000  1.0  -0.1488
  C  C285  1  0.712800  0.169700  0.492700  1.0  0.0463
  C  C286  1  0.785100  0.185300  0.435600  1.0  -0.119
  C  C287  1  0.791400  0.226800  0.393400  1.0  0.0148
  C  C288  1  0.721000  0.253400  0.412900  1.0  -0.0721
  C  C289  1  0.866300  0.241700  0.324900  1.0  0.0451
  C  C290  1  0.892000  0.283500  0.327600  1.0  -0.094
  C  C291  1  0.963800  0.297500  0.267500  1.0  -0.2128
  C  C292  1  0.008000  0.269800  0.195300  1.0  0.1273
  C  C293  1  0.985300  0.228100  0.191900  1.0  -0.1524
  C  C294  1  0.915600  0.214500  0.255900  1.0  -0.112
  C  C295  1  0.078500  0.319800  0.051200  1.0  0.1459
  C  C296  1  0.199000  0.287500  0.031200  1.0  0.0736
  C  C297  1  0.155500  0.262200  0.109900  1.0  -0.1486
  C  C298  1  0.712100  0.126100  0.536700  1.0  0.0119
  C  C299  1  0.795500  0.106100  0.609100  1.0  -0.1468
  C  C300  1  0.793600  0.064500  0.646400  1.0  -0.1345
  C  C301  1  0.711100  0.042100  0.615500  1.0  0.1387
  C  C302  1  0.629100  0.062600  0.551000  1.0  -0.1865
  C  C303  1  0.630400  0.103900  0.512200  1.0  -0.0924
  C  C304  1  0.773500  0.971000  0.638700  1.0  0.1672
  C  C305  1  0.672900  0.940300  0.727700  1.0  0.0525
  C  C306  1  0.646200  0.980000  0.710300  1.0  -0.1493
  C  C307  1  0.025300  0.399700  0.788300  1.0  0.6368
  C  C308  1  0.925300  0.410900  0.724100  1.0  -0.1228
  C  C309  1  0.883000  0.406400  0.573000  1.0  -0.0957
  C  C310  1  0.790200  0.417400  0.518200  1.0  -0.1607
  C  C311  1  0.737300  0.432400  0.607200  1.0  0.3201
  C  C312  1  0.777500  0.436100  0.758500  1.0  -0.1151
  C  C313  1  0.873400  0.427600  0.816700  1.0  -0.0516
  C  C314  1  0.586400  0.425000  0.449000  1.0  0.3153
  C  C315  1  0.595000  0.385200  0.409300  1.0  -0.209
  C  C316  1  0.526500  0.366600  0.296700  1.0  -0.0565
  C  C317  1  0.447800  0.388900  0.221500  1.0  -0.1039
  C  C318  1  0.440300  0.429900  0.263000  1.0  -0.0492
  C  C319  1  0.511400  0.448100  0.377700  1.0  -0.1438
  C  C320  1  0.375100  0.367900  0.095000  1.0  0.6501
  N  N321  1  0.241400  0.152700  0.205400  1.0  -0.364
  N  N322  1  0.336000  0.173300  0.069600  1.0  0.0496
  N  N323  1  0.151800  0.176800  0.494800  1.0  -0.3773
  N  N324  1  0.079300  0.216500  0.625500  1.0  0.0331
  N  N325  1  0.754400  0.566000  0.182100  1.0  -0.4374
  N  N326  1  0.710900  0.500400  0.155100  1.0  0.0453
  N  N327  1  0.758600  0.652700  0.294600  1.0  -0.3662
  N  N328  1  0.664000  0.673300  0.430400  1.0  0.0499
  N  N329  1  0.848200  0.676800  0.005200  1.0  -0.378
  N  N330  1  0.920700  0.716500  0.874500  1.0  0.0339
  N  N331  1  0.245600  0.066000  0.317900  1.0  -0.4385
  N  N332  1  0.289100  0.000400  0.344900  1.0  0.045
  N  N333  1  0.758600  0.847300  0.794600  1.0  -0.3658
  N  N334  1  0.664000  0.826700  0.930400  1.0  0.05
  N  N335  1  0.848200  0.823200  0.505200  1.0  -0.379
  N  N336  1  0.920700  0.783500  0.374500  1.0  0.0337
  N  N337  1  0.245600  0.434000  0.817900  1.0  -0.4379
  N  N338  1  0.289100  0.499600  0.844900  1.0  0.0451
  N  N339  1  0.241400  0.347300  0.705400  1.0  -0.3638
  N  N340  1  0.336000  0.326700  0.569600  1.0  0.0493
  N  N341  1  0.151800  0.323200  0.994800  1.0  -0.3779
  N  N342  1  0.079300  0.283500  0.125500  1.0  0.0334
  N  N343  1  0.754400  0.934000  0.682100  1.0  -0.4367
  N  N344  1  0.710900  0.999600  0.655100  1.0  0.0454
  O  O345  1  0.068800  0.087100  0.417100  1.0  -0.5871
  O  O346  1  0.061300  0.123700  0.213400  1.0  -0.5661
  O  O347  1  0.648500  0.054600  0.061800  1.0  -0.2809
  O  O348  1  0.400900  0.162700  0.534200  1.0  -0.5811
  O  O349  1  0.296400  0.114700  0.568800  1.0  -0.5924
  O  O350  1  0.931200  0.587100  0.082900  1.0  -0.5839
  O  O351  1  0.938700  0.623700  0.286600  1.0  -0.5642
  O  O352  1  0.351500  0.554600  0.438200  1.0  -0.2794
  O  O353  1  0.599100  0.662700  0.965800  1.0  -0.5806
  O  O354  1  0.703600  0.614700  0.931200  1.0  -0.5918
  O  O355  1  0.931200  0.912900  0.582900  1.0  -0.584
  O  O356  1  0.938700  0.876300  0.786600  1.0  -0.5653
  O  O357  1  0.351500  0.945400  0.938200  1.0  -0.2781
  O  O358  1  0.599100  0.837300  0.465800  1.0  -0.5806
  O  O359  1  0.703600  0.885300  0.431200  1.0  -0.5908
  O  O360  1  0.068800  0.412900  0.917100  1.0  -0.5847
  O  O361  1  0.061300  0.376300  0.713400  1.0  -0.5664
  O  O362  1  0.648500  0.445400  0.561800  1.0  -0.278
  O  O363  1  0.400900  0.337300  0.034200  1.0  -0.5813
  O  O364  1  0.296400  0.385300  0.068800  1.0  -0.5917
