# generated using pymatgen
data_CoPH28C39N3O
_symmetry_space_group_name_H-M   'P 1'
_cell_length_a   23.86200000
_cell_length_b   8.59300000
_cell_length_c   19.05840000
_cell_angle_alpha   90.00000000
_cell_angle_beta   90.00000000
_cell_angle_gamma   90.00000000
_symmetry_Int_Tables_number   1
_chemical_formula_structural   CoPH28C39N3O
_chemical_formula_sum   'Co4 P4 H112 C156 N12 O4'
_cell_volume   3907.85185009
_cell_formula_units_Z   4
loop_
 _symmetry_equiv_pos_site_id
 _symmetry_equiv_pos_as_xyz
  1  'x, y, z'
loop_
 _atom_site_type_symbol
 _atom_site_label
 _atom_site_symmetry_multiplicity
 _atom_site_fract_x
 _atom_site_fract_y
 _atom_site_fract_z
 _atom_site_occupancy
 _atom_site_charge
  Co  Co1  1  0.343760  0.697330  0.483750  1.0  0.788
  Co  Co2  1  0.656240  0.302670  0.983750  1.0  0.7871
  Co  Co3  1  0.843760  0.802670  0.483750  1.0  0.7875
  Co  Co4  1  0.156240  0.197330  0.983750  1.0  0.7871
  P  P5  1  0.598720  0.473400  0.134660  1.0  1.1281
  P  P6  1  0.401280  0.526600  0.634660  1.0  1.1274
  P  P7  1  0.098720  0.026600  0.134660  1.0  1.1282
  P  P8  1  0.901280  0.973400  0.634660  1.0  1.1275
  H  H9  1  0.353000  0.053700  0.454500  1.0  0.0713
  H  H10  1  0.420800  0.248400  0.450500  1.0  0.1158
  H  H11  1  0.536700  0.924800  0.501500  1.0  0.1111
  H  H12  1  0.466600  0.742500  0.504400  1.0  0.0701
  H  H13  1  0.491400  0.412100  0.430500  1.0  0.1071
  H  H14  1  0.659300  0.449600  0.419200  1.0  0.1152
  H  H15  1  0.730400  0.262000  0.392500  1.0  0.0985
  H  H16  1  0.807700  0.106900  0.403900  1.0  0.0838
  H  H17  1  0.738400  0.886000  0.562100  1.0  0.0633
  H  H18  1  0.657700  0.027500  0.550100  1.0  0.1151
  H  H19  1  0.492700  0.607400  0.353800  1.0  0.1099
  H  H20  1  0.493600  0.852300  0.297800  1.0  0.0959
  H  H21  1  0.649700  0.928000  0.367000  1.0  0.0958
  H  H22  1  0.646800  0.695300  0.431000  1.0  0.1134
  H  H23  1  0.502900  0.152700  0.307900  1.0  0.0936
  H  H24  1  0.512500  0.375300  0.237700  1.0  0.0961
  H  H25  1  0.659500  0.203300  0.165300  1.0  0.0832
  H  H26  1  0.652900  0.995400  0.240800  1.0  0.1141
  H  H27  1  0.484600  0.409900  0.102600  1.0  0.0948
  H  H28  1  0.400500  0.544700  0.109500  1.0  0.1148
  H  H29  1  0.401400  0.811200  0.138700  1.0  0.0993
  H  H30  1  0.485200  0.934800  0.162400  1.0  0.0957
  H  H31  1  0.568800  0.798600  0.160800  1.0  0.1006
  H  H32  1  0.668000  0.713400  0.081800  1.0  0.0959
  H  H33  1  0.747900  0.848000  0.123400  1.0  0.1038
  H  H34  1  0.776200  0.812800  0.241200  1.0  0.0974
  H  H35  1  0.731300  0.634800  0.311400  1.0  0.0967
  H  H36  1  0.652000  0.500100  0.270300  1.0  0.0984
  H  H37  1  0.647000  0.946300  0.954500  1.0  0.0709
  H  H38  1  0.579200  0.751600  0.950500  1.0  0.1155
  H  H39  1  0.463300  0.075200  0.001500  1.0  0.1116
  H  H40  1  0.533400  0.257500  0.004400  1.0  0.0697
  H  H41  1  0.508600  0.587900  0.930500  1.0  0.1071
  H  H42  1  0.340700  0.550400  0.919200  1.0  0.1157
  H  H43  1  0.269600  0.738000  0.892500  1.0  0.0984
  H  H44  1  0.192300  0.893100  0.903900  1.0  0.0835
  H  H45  1  0.261600  0.114000  0.062100  1.0  0.0632
  H  H46  1  0.342300  0.972500  0.050100  1.0  0.1151
  H  H47  1  0.507300  0.392600  0.853800  1.0  0.1102
  H  H48  1  0.506400  0.147700  0.797800  1.0  0.0956
  H  H49  1  0.350300  0.072000  0.867000  1.0  0.0956
  H  H50  1  0.353200  0.304700  0.931000  1.0  0.1131
  H  H51  1  0.497100  0.847300  0.807900  1.0  0.0931
  H  H52  1  0.487500  0.624700  0.737700  1.0  0.0963
  H  H53  1  0.340500  0.796700  0.665300  1.0  0.0831
  H  H54  1  0.347100  0.004600  0.740800  1.0  0.1139
  H  H55  1  0.515400  0.590100  0.602600  1.0  0.0943
  H  H56  1  0.599500  0.455300  0.609500  1.0  0.1153
  H  H57  1  0.598600  0.188800  0.638700  1.0  0.0995
  H  H58  1  0.514800  0.065200  0.662400  1.0  0.096
  H  H59  1  0.431200  0.201400  0.660800  1.0  0.101
  H  H60  1  0.332000  0.286600  0.581800  1.0  0.0963
  H  H61  1  0.252100  0.152000  0.623400  1.0  0.1033
  H  H62  1  0.223800  0.187200  0.741200  1.0  0.0977
  H  H63  1  0.268700  0.365200  0.811400  1.0  0.0972
  H  H64  1  0.348000  0.499900  0.770300  1.0  0.0978
  H  H65  1  0.853000  0.446300  0.454500  1.0  0.0712
  H  H66  1  0.920800  0.251600  0.450500  1.0  0.1152
  H  H67  1  0.036700  0.575200  0.501500  1.0  0.1113
  H  H68  1  0.966600  0.757500  0.504400  1.0  0.0702
  H  H69  1  0.991400  0.087900  0.430500  1.0  0.1076
  H  H70  1  0.159300  0.050400  0.419200  1.0  0.1153
  H  H71  1  0.230400  0.238000  0.392500  1.0  0.0987
  H  H72  1  0.307700  0.393100  0.403900  1.0  0.0837
  H  H73  1  0.238400  0.614000  0.562100  1.0  0.0633
  H  H74  1  0.157700  0.472500  0.550100  1.0  0.115
  H  H75  1  0.992700  0.892600  0.353800  1.0  0.1105
  H  H76  1  0.993600  0.647700  0.297800  1.0  0.0958
  H  H77  1  0.149700  0.572000  0.367000  1.0  0.0957
  H  H78  1  0.146800  0.804700  0.431000  1.0  0.1133
  H  H79  1  0.002900  0.347300  0.307900  1.0  0.0934
  H  H80  1  0.012500  0.124700  0.237700  1.0  0.0956
  H  H81  1  0.159500  0.296700  0.165300  1.0  0.0834
  H  H82  1  0.152900  0.504600  0.240800  1.0  0.1137
  H  H83  1  0.984600  0.090100  0.102600  1.0  0.0949
  H  H84  1  0.900500  0.955300  0.109500  1.0  0.1152
  H  H85  1  0.901400  0.688800  0.138700  1.0  0.0994
  H  H86  1  0.985200  0.565200  0.162400  1.0  0.0964
  H  H87  1  0.068800  0.701400  0.160800  1.0  0.1009
  H  H88  1  0.168000  0.786600  0.081800  1.0  0.0956
  H  H89  1  0.247900  0.652000  0.123400  1.0  0.1033
  H  H90  1  0.276200  0.687200  0.241200  1.0  0.0974
  H  H91  1  0.231300  0.865200  0.311400  1.0  0.0966
  H  H92  1  0.152000  0.999900  0.270300  1.0  0.0984
  H  H93  1  0.147000  0.553700  0.954500  1.0  0.0713
  H  H94  1  0.079200  0.748400  0.950500  1.0  0.1158
  H  H95  1  0.963300  0.424800  0.001500  1.0  0.1115
  H  H96  1  0.033400  0.242500  0.004400  1.0  0.0697
  H  H97  1  0.008600  0.912100  0.930500  1.0  0.1068
  H  H98  1  0.840700  0.949600  0.919200  1.0  0.1154
  H  H99  1  0.769600  0.762000  0.892500  1.0  0.0984
  H  H100  1  0.692300  0.606900  0.903900  1.0  0.0835
  H  H101  1  0.761600  0.386000  0.062100  1.0  0.0632
  H  H102  1  0.842300  0.527500  0.050100  1.0  0.1156
  H  H103  1  0.007300  0.107400  0.853800  1.0  0.1102
  H  H104  1  0.006400  0.352300  0.797800  1.0  0.0956
  H  H105  1  0.850300  0.428000  0.867000  1.0  0.0961
  H  H106  1  0.853200  0.195300  0.931000  1.0  0.1131
  H  H107  1  0.997100  0.652700  0.807900  1.0  0.0934
  H  H108  1  0.987500  0.875300  0.737700  1.0  0.0958
  H  H109  1  0.840500  0.703300  0.665300  1.0  0.0827
  H  H110  1  0.847100  0.495400  0.740800  1.0  0.1139
  H  H111  1  0.015400  0.909900  0.602600  1.0  0.0945
  H  H112  1  0.099500  0.044700  0.609500  1.0  0.1148
  H  H113  1  0.098600  0.311200  0.638700  1.0  0.0996
  H  H114  1  0.014800  0.434800  0.662400  1.0  0.0955
  H  H115  1  0.931200  0.298600  0.660800  1.0  0.1011
  H  H116  1  0.832000  0.213400  0.581800  1.0  0.0963
  H  H117  1  0.752100  0.348000  0.623400  1.0  0.1039
  H  H118  1  0.723800  0.312800  0.741200  1.0  0.0976
  H  H119  1  0.768700  0.134800  0.811400  1.0  0.0974
  H  H120  1  0.848000  0.000100  0.770300  1.0  0.098
  C  C121  1  0.390800  0.027700  0.464700  1.0  0.1203
  C  C122  1  0.431400  0.144200  0.460600  1.0  -0.1826
  C  C123  1  0.486400  0.107100  0.471500  1.0  -0.0203
  C  C124  1  0.499200  0.953800  0.490700  1.0  -0.1971
  C  C125  1  0.457100  0.847100  0.493700  1.0  0.1625
  C  C126  1  0.534400  0.218400  0.461200  1.0  0.1819
  C  C127  1  0.527800  0.370300  0.437100  1.0  -0.0919
  C  C128  1  0.574300  0.459800  0.422900  1.0  0.0396
  C  C129  1  0.626400  0.393400  0.431300  1.0  -0.1802
  C  C130  1  0.630200  0.241900  0.458000  1.0  0.2281
  C  C131  1  0.684400  0.161200  0.468600  1.0  0.017
  C  C132  1  0.730500  0.181900  0.426900  1.0  -0.1935
  C  C133  1  0.776500  0.089500  0.433900  1.0  0.1289
  C  C134  1  0.736200  0.960000  0.525100  1.0  0.1313
  C  C135  1  0.688300  0.046300  0.519300  1.0  -0.1942
  C  C136  1  0.571500  0.621700  0.393400  1.0  -0.0279
  C  C137  1  0.525100  0.671500  0.356500  1.0  -0.1244
  C  C138  1  0.525700  0.817900  0.322700  1.0  -0.115
  C  C139  1  0.572100  0.910000  0.325600  1.0  -0.0073
  C  C140  1  0.617400  0.863500  0.364700  1.0  -0.1247
  C  C141  1  0.616500  0.722400  0.401000  1.0  -0.1578
  C  C142  1  0.576500  0.054500  0.281700  1.0  0.0325
  C  C143  1  0.535500  0.165300  0.279800  1.0  -0.1181
  C  C144  1  0.540700  0.297400  0.237200  1.0  -0.0867
  C  C145  1  0.588300  0.314300  0.193100  1.0  -0.2309
  C  C146  1  0.627900  0.196500  0.195500  1.0  -0.0463
  C  C147  1  0.623800  0.070900  0.239300  1.0  -0.1533
  C  C148  1  0.534800  0.587000  0.132900  1.0  -0.3176
  C  C149  1  0.484700  0.516200  0.116400  1.0  0.0016
  C  C150  1  0.434900  0.596100  0.119300  1.0  -0.1345
  C  C151  1  0.435500  0.754300  0.136900  1.0  -0.1038
  C  C152  1  0.485100  0.827000  0.151400  1.0  -0.1064
  C  C153  1  0.534700  0.746900  0.150100  1.0  -0.0985
  C  C154  1  0.655400  0.589600  0.170500  1.0  -0.2294
  C  C155  1  0.681400  0.695600  0.128000  1.0  -0.0862
  C  C156  1  0.728200  0.778100  0.153100  1.0  -0.1189
  C  C157  1  0.745400  0.755200  0.223100  1.0  -0.1096
  C  C158  1  0.718400  0.651500  0.264900  1.0  -0.1131
  C  C159  1  0.671900  0.568900  0.240300  1.0  -0.0662
  C  C160  1  0.609200  0.972300  0.964700  1.0  0.12
  C  C161  1  0.568600  0.855800  0.960600  1.0  -0.1843
  C  C162  1  0.513600  0.892900  0.971500  1.0  -0.0213
  C  C163  1  0.500800  0.046200  0.990700  1.0  -0.197
  C  C164  1  0.542900  0.152900  0.993700  1.0  0.1619
  C  C165  1  0.465600  0.781600  0.961200  1.0  0.1831
  C  C166  1  0.472200  0.629700  0.937100  1.0  -0.0919
  C  C167  1  0.425700  0.540200  0.922900  1.0  0.0385
  C  C168  1  0.373600  0.606600  0.931300  1.0  -0.1811
  C  C169  1  0.369800  0.758100  0.958000  1.0  0.2279
  C  C170  1  0.315600  0.838800  0.968600  1.0  0.0174
  C  C171  1  0.269500  0.818100  0.926900  1.0  -0.1936
  C  C172  1  0.223500  0.910500  0.933900  1.0  0.1296
  C  C173  1  0.263800  0.040000  0.025100  1.0  0.1311
  C  C174  1  0.311700  0.953700  0.019300  1.0  -0.1959
  C  C175  1  0.428500  0.378300  0.893400  1.0  -0.028
  C  C176  1  0.474900  0.328500  0.856500  1.0  -0.1251
  C  C177  1  0.474300  0.182100  0.822700  1.0  -0.1149
  C  C178  1  0.427900  0.090000  0.825600  1.0  -0.0064
  C  C179  1  0.382600  0.136500  0.864700  1.0  -0.1247
  C  C180  1  0.383500  0.277600  0.901000  1.0  -0.1582
  C  C181  1  0.423500  0.945500  0.781700  1.0  0.0331
  C  C182  1  0.464500  0.834700  0.779800  1.0  -0.1189
  C  C183  1  0.459300  0.702600  0.737200  1.0  -0.0855
  C  C184  1  0.411700  0.685700  0.693100  1.0  -0.2314
  C  C185  1  0.372100  0.803500  0.695500  1.0  -0.047
  C  C186  1  0.376200  0.929100  0.739300  1.0  -0.1541
  C  C187  1  0.465200  0.413000  0.632900  1.0  -0.3175
  C  C188  1  0.515300  0.483800  0.616400  1.0  0.0011
  C  C189  1  0.565100  0.403900  0.619300  1.0  -0.1337
  C  C190  1  0.564500  0.245700  0.636900  1.0  -0.1045
  C  C191  1  0.514900  0.173000  0.651400  1.0  -0.1073
  C  C192  1  0.465300  0.253100  0.650100  1.0  -0.0977
  C  C193  1  0.344600  0.410400  0.670500  1.0  -0.2276
  C  C194  1  0.318600  0.304400  0.628000  1.0  -0.085
  C  C195  1  0.271800  0.221900  0.653100  1.0  -0.1204
  C  C196  1  0.254600  0.244800  0.723100  1.0  -0.1117
  C  C197  1  0.281600  0.348500  0.764900  1.0  -0.1146
  C  C198  1  0.328100  0.431100  0.740300  1.0  -0.067
  C  C199  1  0.890800  0.472300  0.464700  1.0  0.12
  C  C200  1  0.931400  0.355800  0.460600  1.0  -0.1833
  C  C201  1  0.986400  0.392900  0.471500  1.0  -0.0207
  C  C202  1  0.999200  0.546200  0.490700  1.0  -0.1977
  C  C203  1  0.957100  0.652900  0.493700  1.0  0.1621
  C  C204  1  0.034400  0.281600  0.461200  1.0  0.1821
  C  C205  1  0.027800  0.129700  0.437100  1.0  -0.0922
  C  C206  1  0.074300  0.040200  0.422900  1.0  0.0386
  C  C207  1  0.126400  0.106600  0.431300  1.0  -0.1805
  C  C208  1  0.130200  0.258100  0.458000  1.0  0.2284
  C  C209  1  0.184400  0.338800  0.468600  1.0  0.017
  C  C210  1  0.230500  0.318100  0.426900  1.0  -0.1925
  C  C211  1  0.276500  0.410500  0.433900  1.0  0.1288
  C  C212  1  0.236200  0.540000  0.525100  1.0  0.1312
  C  C213  1  0.188300  0.453700  0.519300  1.0  -0.1943
  C  C214  1  0.071500  0.878300  0.393400  1.0  -0.028
  C  C215  1  0.025100  0.828500  0.356500  1.0  -0.1244
  C  C216  1  0.025700  0.682100  0.322700  1.0  -0.1148
  C  C217  1  0.072100  0.590000  0.325600  1.0  -0.0071
  C  C218  1  0.117400  0.636500  0.364700  1.0  -0.1247
  C  C219  1  0.116500  0.777600  0.401000  1.0  -0.158
  C  C220  1  0.076500  0.445500  0.281700  1.0  0.0328
  C  C221  1  0.035500  0.334700  0.279800  1.0  -0.1179
  C  C222  1  0.040700  0.202600  0.237200  1.0  -0.087
  C  C223  1  0.088300  0.185700  0.193100  1.0  -0.2313
  C  C224  1  0.127900  0.303500  0.195500  1.0  -0.0471
  C  C225  1  0.123800  0.429100  0.239300  1.0  -0.1534
  C  C226  1  0.034800  0.913000  0.132900  1.0  -0.3185
  C  C227  1  0.984700  0.983800  0.116400  1.0  0.0015
  C  C228  1  0.934900  0.903900  0.119300  1.0  -0.1349
  C  C229  1  0.935500  0.745700  0.136900  1.0  -0.1037
  C  C230  1  0.985100  0.673000  0.151400  1.0  -0.1077
  C  C231  1  0.034700  0.753100  0.150100  1.0  -0.099
  C  C232  1  0.155400  0.910400  0.170500  1.0  -0.2293
  C  C233  1  0.181400  0.804400  0.128000  1.0  -0.0862
  C  C234  1  0.228200  0.721900  0.153100  1.0  -0.1203
  C  C235  1  0.245400  0.744800  0.223100  1.0  -0.1094
  C  C236  1  0.218400  0.848500  0.264900  1.0  -0.1136
  C  C237  1  0.171900  0.931100  0.240300  1.0  -0.0666
  C  C238  1  0.109200  0.527700  0.964700  1.0  0.1196
  C  C239  1  0.068600  0.644200  0.960600  1.0  -0.1832
  C  C240  1  0.013600  0.607100  0.971500  1.0  -0.0209
  C  C241  1  0.000800  0.453800  0.990700  1.0  -0.1962
  C  C242  1  0.042900  0.347100  0.993700  1.0  0.1626
  C  C243  1  0.965600  0.718400  0.961200  1.0  0.1828
  C  C244  1  0.972200  0.870300  0.937100  1.0  -0.0916
  C  C245  1  0.925700  0.959800  0.922900  1.0  0.0395
  C  C246  1  0.873600  0.893400  0.931300  1.0  -0.1806
  C  C247  1  0.869800  0.741900  0.958000  1.0  0.2274
  C  C248  1  0.815600  0.661200  0.968600  1.0  0.0172
  C  C249  1  0.769500  0.681900  0.926900  1.0  -0.1935
  C  C250  1  0.723500  0.589500  0.933900  1.0  0.1299
  C  C251  1  0.763800  0.460000  0.025100  1.0  0.1313
  C  C252  1  0.811700  0.546300  0.019300  1.0  -0.196
  C  C253  1  0.928500  0.121700  0.893400  1.0  -0.028
  C  C254  1  0.974900  0.171500  0.856500  1.0  -0.1257
  C  C255  1  0.974300  0.317900  0.822700  1.0  -0.115
  C  C256  1  0.927900  0.410000  0.825600  1.0  -0.0065
  C  C257  1  0.882600  0.363500  0.864700  1.0  -0.1248
  C  C258  1  0.883500  0.222400  0.901000  1.0  -0.1583
  C  C259  1  0.923500  0.554500  0.781700  1.0  0.0329
  C  C260  1  0.964500  0.665300  0.779800  1.0  -0.1188
  C  C261  1  0.959300  0.797400  0.737200  1.0  -0.0854
  C  C262  1  0.911700  0.814300  0.693100  1.0  -0.231
  C  C263  1  0.872100  0.696500  0.695500  1.0  -0.0461
  C  C264  1  0.876200  0.570900  0.739300  1.0  -0.1542
  C  C265  1  0.965200  0.087000  0.632900  1.0  -0.3172
  C  C266  1  0.015300  0.016200  0.616400  1.0  0.0021
  C  C267  1  0.065100  0.096100  0.619300  1.0  -0.1339
  C  C268  1  0.064500  0.254300  0.636900  1.0  -0.1043
  C  C269  1  0.014900  0.327000  0.651400  1.0  -0.1064
  C  C270  1  0.965300  0.246900  0.650100  1.0  -0.0975
  C  C271  1  0.844600  0.089600  0.670500  1.0  -0.2275
  C  C272  1  0.818600  0.195600  0.628000  1.0  -0.085
  C  C273  1  0.771800  0.278100  0.653100  1.0  -0.1192
  C  C274  1  0.754600  0.255200  0.723100  1.0  -0.112
  C  C275  1  0.781600  0.151500  0.764900  1.0  -0.1139
  C  C276  1  0.828100  0.068900  0.740300  1.0  -0.0668
  N  N277  1  0.403000  0.880200  0.482300  1.0  -0.3286
  N  N278  1  0.584700  0.156800  0.472400  1.0  -0.4669
  N  N279  1  0.779700  0.973600  0.482200  1.0  -0.3368
  N  N280  1  0.597000  0.119800  0.982300  1.0  -0.3289
  N  N281  1  0.415300  0.843200  0.972400  1.0  -0.4682
  N  N282  1  0.220300  0.026400  0.982200  1.0  -0.3377
  N  N283  1  0.903000  0.619800  0.482300  1.0  -0.3268
  N  N284  1  0.084700  0.343200  0.472400  1.0  -0.4676
  N  N285  1  0.279700  0.526400  0.482200  1.0  -0.3382
  N  N286  1  0.097000  0.380200  0.982300  1.0  -0.3283
  N  N287  1  0.915300  0.656800  0.972400  1.0  -0.4677
  N  N288  1  0.720300  0.473600  0.982200  1.0  -0.341
  O  O289  1  0.613600  0.419400  0.063300  1.0  -0.8345
  O  O290  1  0.386400  0.580600  0.563300  1.0  -0.8334
  O  O291  1  0.113600  0.080600  0.063300  1.0  -0.8337
  O  O292  1  0.886400  0.919400  0.563300  1.0  -0.8341
