# generated using pymatgen
data_ZnH22C34(NO)4
_symmetry_space_group_name_H-M   'P 1'
_cell_length_a   11.44240000
_cell_length_b   15.13520000
_cell_length_c   15.21410000
_cell_angle_alpha   112.00200000
_cell_angle_beta   96.43300000
_cell_angle_gamma   98.57400000
_symmetry_Int_Tables_number   1
_chemical_formula_structural   ZnH22C34(NO)4
_chemical_formula_sum   'Zn2 H44 C68 N8 O8'
_cell_volume   2374.77834311
_cell_formula_units_Z   2
loop_
 _symmetry_equiv_pos_site_id
 _symmetry_equiv_pos_as_xyz
  1  'x, y, z'
loop_
 _atom_site_type_symbol
 _atom_site_label
 _atom_site_symmetry_multiplicity
 _atom_site_fract_x
 _atom_site_fract_y
 _atom_site_fract_z
 _atom_site_occupancy
 _atom_site_charge
  Zn  Zn1  1  0.350400  0.138990  0.730960  1.0  0.8733
  Zn  Zn2  1  0.649600  0.861010  0.269040  1.0  0.8742
  H  H3  1  0.327400  0.665200  0.637500  1.0  0.1176
  H  H4  1  0.350400  0.236200  0.193100  1.0  0.121
  H  H5  1  0.443700  0.462100  0.061400  1.0  0.114
  H  H6  1  0.381900  0.293700  0.349100  1.0  0.1059
  H  H7  1  0.314800  0.827000  0.696500  1.0  0.109
  H  H8  1  0.793800  0.290200  0.795700  1.0  0.1306
  H  H9  1  0.321900  0.663500  0.374700  1.0  0.1015
  H  H10  1  0.901000  0.039200  0.601300  1.0  0.1241
  H  H11  1  0.323900  0.514900  0.577800  1.0  0.1128
  H  H12  1  0.982500  0.270100  0.848500  1.0  0.1297
  H  H13  1  0.729900  0.999500  0.661500  1.0  0.1231
  H  H14  1  0.371200  0.206500  0.431400  1.0  0.1112
  H  H15  1  0.302300  0.823800  0.432600  1.0  0.0836
  H  H16  1  0.423300  0.512600  0.220800  1.0  0.0896
  H  H17  1  0.364800  0.186100  0.032300  1.0  0.1064
  H  H18  1  0.591400  0.279200  0.788600  1.0  0.0745
  H  H19  1  0.529600  0.996500  0.666667  1.0  0.0732
  H  H20  1  0.101200  0.043100  0.607100  1.0  0.0646
  H  H21  1  0.343700  0.434400  0.658600  1.0  0.1185
  H  H22  1  0.372400  0.119300  0.523300  1.0  0.0775
  H  H23  1  0.345500  0.342300  0.745000  1.0  0.0809
  H  H24  1  0.178500  0.262500  0.847500  1.0  0.0717
  H  H25  1  0.672600  0.334800  0.362500  1.0  0.1165
  H  H26  1  0.649600  0.763800  0.806900  1.0  0.1221
  H  H27  1  0.556300  0.537900  0.938600  1.0  0.1145
  H  H28  1  0.618100  0.706300  0.650900  1.0  0.1057
  H  H29  1  0.685200  0.173000  0.303500  1.0  0.1098
  H  H30  1  0.206200  0.709800  0.204300  1.0  0.1306
  H  H31  1  0.678100  0.336500  0.625300  1.0  0.1005
  H  H32  1  0.099000  0.960800  0.398700  1.0  0.1236
  H  H33  1  0.676100  0.485100  0.422200  1.0  0.1133
  H  H34  1  0.017500  0.729900  0.151500  1.0  0.1289
  H  H35  1  0.270100  0.000500  0.338500  1.0  0.1234
  H  H36  1  0.628800  0.793500  0.568600  1.0  0.1095
  H  H37  1  0.697700  0.176200  0.567400  1.0  0.0836
  H  H38  1  0.576700  0.487400  0.779200  1.0  0.0889
  H  H39  1  0.635200  0.813900  0.967700  1.0  0.1065
  H  H40  1  0.408600  0.720800  0.211400  1.0  0.0745
  H  H41  1  0.470400  0.003500  0.333333  1.0  0.0729
  H  H42  1  0.898800  0.956900  0.392900  1.0  0.0637
  H  H43  1  0.656300  0.565600  0.341400  1.0  0.1186
  H  H44  1  0.627600  0.880700  0.476700  1.0  0.0774
  H  H45  1  0.654500  0.657700  0.255000  1.0  0.0811
  H  H46  1  0.821500  0.737500  0.152500  1.0  0.0728
  C  C47  1  0.323300  0.697000  0.595800  1.0  -0.1076
  C  C48  1  0.367900  0.282200  0.167100  1.0  -0.136
  C  C49  1  0.423600  0.416200  0.087100  1.0  -0.0659
  C  C50  1  0.370600  0.357000  0.378800  1.0  -0.1069
  C  C51  1  0.314300  0.793900  0.631100  1.0  -0.0348
  C  C52  1  0.741900  0.229600  0.768100  1.0  -0.2096
  C  C53  1  0.915400  0.148000  0.729600  1.0  0.0883
  C  C54  1  0.326500  0.646900  0.499600  1.0  -0.11
  C  C55  1  0.319200  0.695700  0.439600  1.0  -0.0214
  C  C56  1  0.354500  0.392100  0.474700  1.0  0.0347
  C  C57  1  0.384500  0.381300  0.225300  1.0  -0.0891
  C  C58  1  0.339600  0.543100  0.459300  1.0  0.22
  C  C59  1  0.786200  0.144800  0.730100  1.0  0.0925
  C  C60  1  0.955500  0.084600  0.655000  1.0  -0.2418
  C  C61  1  0.337000  0.488300  0.514700  1.0  -0.1022
  C  C62  1  0.003200  0.219200  0.799700  1.0  -0.2339
  C  C63  1  0.355300  0.332800  0.532400  1.0  0.0837
  C  C64  1  0.704100  0.057500  0.689700  1.0  -0.2033
  C  C65  1  0.405100  0.318400  0.030200  1.0  -0.1517
  C  C66  1  0.365100  0.236500  0.495900  1.0  -0.1936
  C  C67  1  0.307800  0.792200  0.474400  1.0  -0.027
  C  C68  1  0.370000  0.415500  0.328100  1.0  0.1301
  C  C69  1  0.412000  0.446200  0.183400  1.0  -0.0214
  C  C70  1  0.377400  0.252300  0.070500  1.0  -0.0393
  C  C71  1  0.619900  0.222000  0.764100  1.0  0.1798
  C  C72  1  0.296100  0.947600  0.605600  1.0  0.6548
  C  C73  1  0.304500  0.841600  0.570800  1.0  -0.1517
  C  C74  1  0.583200  0.056300  0.691400  1.0  0.1909
  C  C75  1  0.077200  0.087900  0.659100  1.0  0.1933
  C  C76  1  0.408400  0.285700  0.923700  1.0  0.6855
  C  C77  1  0.349000  0.369500  0.628200  1.0  -0.2116
  C  C78  1  0.366000  0.184100  0.551600  1.0  0.1912
  C  C79  1  0.350400  0.313600  0.680100  1.0  0.169
  C  C80  1  0.121400  0.214800  0.797300  1.0  0.1786
  C  C81  1  0.676700  0.303000  0.404200  1.0  -0.1114
  C  C82  1  0.632100  0.717800  0.832900  1.0  -0.1372
  C  C83  1  0.576400  0.583800  0.912900  1.0  -0.0672
  C  C84  1  0.629400  0.643000  0.621200  1.0  -0.1072
  C  C85  1  0.685700  0.206100  0.368900  1.0  -0.0342
  C  C86  1  0.258100  0.770400  0.231900  1.0  -0.2089
  C  C87  1  0.084600  0.852000  0.270400  1.0  0.0884
  C  C88  1  0.673500  0.353100  0.500400  1.0  -0.1261
  C  C89  1  0.680800  0.304300  0.560400  1.0  -0.0214
  C  C90  1  0.645500  0.607900  0.525300  1.0  0.0346
  C  C91  1  0.615500  0.618700  0.774700  1.0  -0.0881
  C  C92  1  0.660400  0.456900  0.540700  1.0  0.2184
  C  C93  1  0.213800  0.855200  0.269900  1.0  0.0906
  C  C94  1  0.044500  0.915400  0.345000  1.0  -0.2424
  C  C95  1  0.663000  0.511700  0.485300  1.0  -0.1023
  C  C96  1  0.996800  0.780800  0.200300  1.0  -0.2355
  C  C97  1  0.644700  0.667200  0.467600  1.0  0.083
  C  C98  1  0.295900  0.942500  0.310300  1.0  -0.2049
  C  C99  1  0.594900  0.681600  0.969800  1.0  -0.1516
  C  C100  1  0.634900  0.763500  0.504100  1.0  -0.1927
  C  C101  1  0.692200  0.207800  0.525600  1.0  -0.0293
  C  C102  1  0.630000  0.584500  0.671900  1.0  0.1285
  C  C103  1  0.588000  0.553800  0.816600  1.0  -0.0218
  C  C104  1  0.622600  0.747700  0.929500  1.0  -0.0394
  C  C105  1  0.380100  0.778000  0.235900  1.0  0.1795
  C  C106  1  0.703900  0.052400  0.394400  1.0  0.6556
  C  C107  1  0.695500  0.158400  0.429200  1.0  -0.159
  C  C108  1  0.416800  0.943700  0.308600  1.0  0.1913
  C  C109  1  0.922800  0.912100  0.340900  1.0  0.193
  C  C110  1  0.591600  0.714300  0.076300  1.0  0.6853
  C  C111  1  0.651000  0.630500  0.371800  1.0  -0.2095
  C  C112  1  0.634000  0.815900  0.448400  1.0  0.191
  C  C113  1  0.649600  0.686400  0.319900  1.0  0.1683
  C  C114  1  0.878600  0.785200  0.202700  1.0  0.1788
  N  N115  1  0.355600  0.507670  0.368180  1.0  -0.451
  N  N116  1  0.540000  0.137710  0.727180  1.0  -0.3296
  N  N117  1  0.358300  0.220760  0.644220  1.0  -0.3128
  N  N118  1  0.160800  0.148800  0.729900  1.0  -0.3157
  N  N119  1  0.644400  0.492330  0.631820  1.0  -0.4533
  N  N120  1  0.460000  0.862290  0.272820  1.0  -0.3332
  N  N121  1  0.641700  0.779240  0.355780  1.0  -0.3148
  N  N122  1  0.839200  0.851200  0.270100  1.0  -0.3159
  O  O123  1  0.315500  0.994820  0.696850  1.0  -0.6042
  O  O124  1  0.379800  0.194610  0.875070  1.0  -0.59
  O  O125  1  0.438800  0.346900  0.890920  1.0  -0.5614
  O  O126  1  0.274100  0.983250  0.546500  1.0  -0.5596
  O  O127  1  0.684500  0.005180  0.303150  1.0  -0.6032
  O  O128  1  0.620200  0.805390  0.124930  1.0  -0.5915
  O  O129  1  0.561200  0.653100  0.109080  1.0  -0.562
  O  O130  1  0.725900  0.016750  0.453500  1.0  -0.5584
