# generated using pymatgen
data_Ni2H39C63(N2O)6
_symmetry_space_group_name_H-M   'P 1'
_cell_length_a   16.80200000
_cell_length_b   16.80200000
_cell_length_c   13.96000000
_cell_angle_alpha   90.00000000
_cell_angle_beta   90.00000000
_cell_angle_gamma   120.00000000
_symmetry_Int_Tables_number   1
_chemical_formula_structural   Ni2H39C63(N2O)6
_chemical_formula_sum   'Ni4 H78 C126 N24 O12'
_cell_volume   3413.01353628
_cell_formula_units_Z   2
loop_
 _symmetry_equiv_pos_site_id
 _symmetry_equiv_pos_as_xyz
  1  'x, y, z'
loop_
 _atom_site_type_symbol
 _atom_site_label
 _atom_site_symmetry_multiplicity
 _atom_site_fract_x
 _atom_site_fract_y
 _atom_site_fract_z
 _atom_site_occupancy
 _atom_site_charge
  Ni  Ni1  1  0.666667  0.333333  0.103480  1.0  0.7381
  Ni  Ni2  1  0.666667  0.333333  0.396520  1.0  0.7381
  Ni  Ni3  1  0.333333  0.666667  0.896520  1.0  0.7381
  Ni  Ni4  1  0.333333  0.666667  0.603480  1.0  0.7381
  H  H5  1  0.934700  0.426500  0.385500  1.0  0.0987
  H  H6  1  0.216400  0.637900  0.417200  1.0  0.0735
  H  H7  1  0.223300  0.434600  0.650600  1.0  0.1094
  H  H8  1  0.108900  0.281900  0.652500  1.0  0.0963
  H  H9  1  0.988400  0.225000  0.545800  1.0  0.0976
  H  H10  1  0.979900  0.318200  0.427900  1.0  0.1131
  H  H11  1  0.573500  0.508200  0.385500  1.0  0.099
  H  H12  1  0.362100  0.578500  0.417200  1.0  0.0725
  H  H13  1  0.565400  0.788700  0.650600  1.0  0.1108
  H  H14  1  0.718100  0.827000  0.652500  1.0  0.0951
  H  H15  1  0.775000  0.763400  0.545800  1.0  0.0964
  H  H16  1  0.681800  0.661700  0.427900  1.0  0.1125
  H  H17  1  0.491800  0.065300  0.385500  1.0  0.0984
  H  H18  1  0.421500  0.783600  0.417200  1.0  0.0731
  H  H19  1  0.211300  0.776700  0.650600  1.0  0.1117
  H  H20  1  0.173000  0.891100  0.652500  1.0  0.095
  H  H21  1  0.236600  0.011600  0.545800  1.0  0.0976
  H  H22  1  0.338300  0.020100  0.427900  1.0  0.1122
  H  H23  1  0.573500  0.065300  0.114500  1.0  0.0981
  H  H24  1  0.362100  0.783600  0.082800  1.0  0.0729
  H  H25  1  0.565400  0.776700  0.849400  1.0  0.1113
  H  H26  1  0.718100  0.891100  0.847500  1.0  0.0956
  H  H27  1  0.775000  0.011600  0.954200  1.0  0.0978
  H  H28  1  0.681800  0.020100  0.072100  1.0  0.1123
  H  H29  1  0.491800  0.426500  0.114500  1.0  0.0981
  H  H30  1  0.421500  0.637900  0.082800  1.0  0.0736
  H  H31  1  0.211300  0.434600  0.849400  1.0  0.1093
  H  H32  1  0.173000  0.281900  0.847500  1.0  0.0958
  H  H33  1  0.236600  0.225000  0.954200  1.0  0.0983
  H  H34  1  0.338300  0.318200  0.072100  1.0  0.1133
  H  H35  1  0.934700  0.508200  0.114500  1.0  0.0986
  H  H36  1  0.216400  0.578500  0.082800  1.0  0.0731
  H  H37  1  0.223300  0.788700  0.849400  1.0  0.1111
  H  H38  1  0.108900  0.827000  0.847500  1.0  0.0954
  H  H39  1  0.988400  0.763400  0.954200  1.0  0.0962
  H  H40  1  0.979900  0.661700  0.072100  1.0  0.1127
  H  H41  1  0.065300  0.573500  0.614500  1.0  0.0982
  H  H42  1  0.783600  0.362100  0.582800  1.0  0.0739
  H  H43  1  0.776700  0.565400  0.349400  1.0  0.1093
  H  H44  1  0.891100  0.718100  0.347500  1.0  0.0967
  H  H45  1  0.011600  0.775000  0.454200  1.0  0.0977
  H  H46  1  0.020100  0.681800  0.572100  1.0  0.1122
  H  H47  1  0.426500  0.491800  0.614500  1.0  0.0984
  H  H48  1  0.637900  0.421500  0.582800  1.0  0.0731
  H  H49  1  0.434600  0.211300  0.349400  1.0  0.1107
  H  H50  1  0.281900  0.173000  0.347500  1.0  0.0943
  H  H51  1  0.225000  0.236600  0.454200  1.0  0.0973
  H  H52  1  0.318200  0.338300  0.572100  1.0  0.1136
  H  H53  1  0.508200  0.934700  0.614500  1.0  0.0982
  H  H54  1  0.578500  0.216400  0.582800  1.0  0.0728
  H  H55  1  0.788700  0.223300  0.349400  1.0  0.1109
  H  H56  1  0.827000  0.108900  0.347500  1.0  0.0952
  H  H57  1  0.763400  0.988400  0.454200  1.0  0.0974
  H  H58  1  0.661700  0.979900  0.572100  1.0  0.113
  H  H59  1  0.426500  0.934700  0.885500  1.0  0.0988
  H  H60  1  0.637900  0.216400  0.917200  1.0  0.073
  H  H61  1  0.434600  0.223300  0.150600  1.0  0.112
  H  H62  1  0.281900  0.108900  0.152500  1.0  0.0953
  H  H63  1  0.225000  0.988400  0.045800  1.0  0.0978
  H  H64  1  0.318200  0.979900  0.927900  1.0  0.1118
  H  H65  1  0.508200  0.573500  0.885500  1.0  0.0983
  H  H66  1  0.578500  0.362100  0.917200  1.0  0.0735
  H  H67  1  0.788700  0.565400  0.150600  1.0  0.1098
  H  H68  1  0.827000  0.718100  0.152500  1.0  0.0959
  H  H69  1  0.763400  0.775000  0.045800  1.0  0.0969
  H  H70  1  0.661700  0.681800  0.927900  1.0  0.1128
  H  H71  1  0.065300  0.491800  0.885500  1.0  0.0991
  H  H72  1  0.783600  0.421500  0.917200  1.0  0.073
  H  H73  1  0.776700  0.211300  0.150600  1.0  0.1111
  H  H74  1  0.891100  0.173000  0.152500  1.0  0.096
  H  H75  1  0.011600  0.236600  0.045800  1.0  0.096
  H  H76  1  0.020100  0.338300  0.927900  1.0  0.1134
  H  H77  1  0.173900  0.586950  0.250000  1.0  0.1098
  H  H78  1  0.413050  0.586950  0.250000  1.0  0.1099
  H  H79  1  0.413050  0.826100  0.250000  1.0  0.1076
  H  H80  1  0.826100  0.413050  0.750000  1.0  0.1096
  H  H81  1  0.586950  0.413050  0.750000  1.0  0.1097
  H  H82  1  0.586950  0.173900  0.750000  1.0  0.1082
  C  C83  1  0.966690  0.458600  0.331210  1.0  -0.1357
  C  C84  1  0.061750  0.505560  0.330550  1.0  0.1475
  C  C85  1  0.191140  0.579790  0.444690  1.0  0.2135
  C  C86  1  0.170000  0.468200  0.536500  1.0  0.1432
  C  C87  1  0.175400  0.412000  0.606400  1.0  -0.1378
  C  C88  1  0.106700  0.321300  0.607200  1.0  -0.1148
  C  C89  1  0.033800  0.286500  0.542000  1.0  -0.1048
  C  C90  1  0.027700  0.341400  0.472100  1.0  -0.1224
  C  C91  1  0.096300  0.432500  0.471400  1.0  0.1014
  C  C92  1  0.541400  0.508090  0.331210  1.0  -0.1353
  C  C93  1  0.494440  0.556190  0.330550  1.0  0.1461
  C  C94  1  0.420210  0.611350  0.444690  1.0  0.2142
  C  C95  1  0.531800  0.701800  0.536500  1.0  0.1444
  C  C96  1  0.588000  0.763400  0.606400  1.0  -0.1373
  C  C97  1  0.678700  0.785400  0.607200  1.0  -0.1142
  C  C98  1  0.713500  0.747300  0.542000  1.0  -0.1038
  C  C99  1  0.658600  0.686300  0.472100  1.0  -0.1205
  C  C100  1  0.567500  0.663800  0.471400  1.0  0.1019
  C  C101  1  0.491910  0.033310  0.331210  1.0  -0.1355
  C  C102  1  0.443810  0.938250  0.330550  1.0  0.1465
  C  C103  1  0.388650  0.808860  0.444690  1.0  0.2101
  C  C104  1  0.298200  0.830000  0.536500  1.0  0.1452
  C  C105  1  0.236600  0.824600  0.606400  1.0  -0.1352
  C  C106  1  0.214600  0.893300  0.607200  1.0  -0.1158
  C  C107  1  0.252700  0.966200  0.542000  1.0  -0.106
  C  C108  1  0.313700  0.972300  0.472100  1.0  -0.1214
  C  C109  1  0.336200  0.903700  0.471400  1.0  0.1022
  C  C110  1  0.541400  0.033310  0.168790  1.0  -0.1345
  C  C111  1  0.494440  0.938250  0.169450  1.0  0.1467
  C  C112  1  0.420210  0.808860  0.055310  1.0  0.2139
  C  C113  1  0.531800  0.830000  0.963500  1.0  0.1456
  C  C114  1  0.588000  0.824600  0.893600  1.0  -0.1365
  C  C115  1  0.678700  0.893300  0.892800  1.0  -0.1143
  C  C116  1  0.713500  0.966200  0.958000  1.0  -0.1057
  C  C117  1  0.658600  0.972300  0.027900  1.0  -0.1207
  C  C118  1  0.567500  0.903700  0.028600  1.0  0.1022
  C  C119  1  0.491910  0.458600  0.168790  1.0  -0.1355
  C  C120  1  0.443810  0.505560  0.169450  1.0  0.1477
  C  C121  1  0.388650  0.579790  0.055310  1.0  0.2135
  C  C122  1  0.298200  0.468200  0.963500  1.0  0.1435
  C  C123  1  0.236600  0.412000  0.893600  1.0  -0.1357
  C  C124  1  0.214600  0.321300  0.892800  1.0  -0.1136
  C  C125  1  0.252700  0.286500  0.958000  1.0  -0.1027
  C  C126  1  0.313700  0.341400  0.027900  1.0  -0.1225
  C  C127  1  0.336200  0.432500  0.028600  1.0  0.1026
  C  C128  1  0.966690  0.508090  0.168790  1.0  -0.1351
  C  C129  1  0.061750  0.556190  0.169450  1.0  0.1468
  C  C130  1  0.191140  0.611350  0.055310  1.0  0.2104
  C  C131  1  0.170000  0.701800  0.963500  1.0  0.1443
  C  C132  1  0.175400  0.763400  0.893600  1.0  -0.1393
  C  C133  1  0.106700  0.785400  0.892800  1.0  -0.1148
  C  C134  1  0.033800  0.747300  0.958000  1.0  -0.1046
  C  C135  1  0.027700  0.686300  0.027900  1.0  -0.1234
  C  C136  1  0.096300  0.663800  0.028600  1.0  0.1022
  C  C137  1  0.033310  0.541400  0.668790  1.0  -0.1355
  C  C138  1  0.938250  0.494440  0.669450  1.0  0.1477
  C  C139  1  0.808860  0.420210  0.555310  1.0  0.2135
  C  C140  1  0.830000  0.531800  0.463500  1.0  0.1448
  C  C141  1  0.824600  0.588000  0.393600  1.0  -0.1372
  C  C142  1  0.893300  0.678700  0.392800  1.0  -0.1158
  C  C143  1  0.966200  0.713500  0.458000  1.0  -0.0983
  C  C144  1  0.972300  0.658600  0.527900  1.0  -0.1233
  C  C145  1  0.903700  0.567500  0.528600  1.0  0.1021
  C  C146  1  0.458600  0.491910  0.668790  1.0  -0.1348
  C  C147  1  0.505560  0.443810  0.669450  1.0  0.1472
  C  C148  1  0.579790  0.388650  0.555310  1.0  0.2134
  C  C149  1  0.468200  0.298200  0.463500  1.0  0.1442
  C  C150  1  0.412000  0.236600  0.393600  1.0  -0.1393
  C  C151  1  0.321300  0.214600  0.392800  1.0  -0.1139
  C  C152  1  0.286500  0.252700  0.458000  1.0  -0.1049
  C  C153  1  0.341400  0.313700  0.527900  1.0  -0.1228
  C  C154  1  0.432500  0.336200  0.528600  1.0  0.1022
  C  C155  1  0.508090  0.966690  0.668790  1.0  -0.1348
  C  C156  1  0.556190  0.061750  0.669450  1.0  0.1464
  C  C157  1  0.611350  0.191140  0.555310  1.0  0.2116
  C  C158  1  0.701800  0.170000  0.463500  1.0  0.1453
  C  C159  1  0.763400  0.175400  0.393600  1.0  -0.1367
  C  C160  1  0.785400  0.106700  0.392800  1.0  -0.1136
  C  C161  1  0.747300  0.033800  0.458000  1.0  -0.106
  C  C162  1  0.686300  0.027700  0.527900  1.0  -0.1214
  C  C163  1  0.663800  0.096300  0.528600  1.0  0.1024
  C  C164  1  0.458600  0.966690  0.831210  1.0  -0.1359
  C  C165  1  0.505560  0.061750  0.830550  1.0  0.1463
  C  C166  1  0.579790  0.191140  0.944690  1.0  0.2136
  C  C167  1  0.468200  0.170000  0.036500  1.0  0.1453
  C  C168  1  0.412000  0.175400  0.106400  1.0  -0.1352
  C  C169  1  0.321300  0.106700  0.107200  1.0  -0.1155
  C  C170  1  0.286500  0.033800  0.042000  1.0  -0.1063
  C  C171  1  0.341400  0.027700  0.972100  1.0  -0.1213
  C  C172  1  0.432500  0.096300  0.971400  1.0  0.1016
  C  C173  1  0.508090  0.541400  0.831210  1.0  -0.1359
  C  C174  1  0.556190  0.494440  0.830550  1.0  0.1476
  C  C175  1  0.611350  0.420210  0.944690  1.0  0.2134
  C  C176  1  0.701800  0.531800  0.036500  1.0  0.1441
  C  C177  1  0.763400  0.588000  0.106400  1.0  -0.138
  C  C178  1  0.785400  0.678700  0.107200  1.0  -0.115
  C  C179  1  0.747300  0.713500  0.042000  1.0  -0.1006
  C  C180  1  0.686300  0.658600  0.972100  1.0  -0.1223
  C  C181  1  0.663800  0.567500  0.971400  1.0  0.1019
  C  C182  1  0.033310  0.491910  0.831210  1.0  -0.1354
  C  C183  1  0.938250  0.443810  0.830550  1.0  0.1463
  C  C184  1  0.808860  0.388650  0.944690  1.0  0.2117
  C  C185  1  0.830000  0.298200  0.036500  1.0  0.144
  C  C186  1  0.824600  0.236600  0.106400  1.0  -0.1371
  C  C187  1  0.893300  0.214600  0.107200  1.0  -0.1142
  C  C188  1  0.966200  0.252700  0.042000  1.0  -0.104
  C  C189  1  0.972300  0.313700  0.972100  1.0  -0.1213
  C  C190  1  0.903700  0.336200  0.971400  1.0  0.1016
  C  C191  1  0.815500  0.407750  0.250000  1.0  0.6497
  C  C192  1  0.919500  0.459750  0.250000  1.0  -0.1553
  C  C193  1  0.110000  0.555000  0.250000  1.0  -0.2182
  C  C194  1  0.592250  0.407750  0.250000  1.0  0.6504
  C  C195  1  0.540250  0.459750  0.250000  1.0  -0.1551
  C  C196  1  0.445000  0.555000  0.250000  1.0  -0.2201
  C  C197  1  0.592250  0.184500  0.250000  1.0  0.6525
  C  C198  1  0.540250  0.080500  0.250000  1.0  -0.1537
  C  C199  1  0.445000  0.890000  0.250000  1.0  -0.2176
  C  C200  1  0.184500  0.592250  0.750000  1.0  0.6511
  C  C201  1  0.080500  0.540250  0.750000  1.0  -0.1552
  C  C202  1  0.890000  0.445000  0.750000  1.0  -0.2199
  C  C203  1  0.407750  0.592250  0.750000  1.0  0.65
  C  C204  1  0.459750  0.540250  0.750000  1.0  -0.1557
  C  C205  1  0.555000  0.445000  0.750000  1.0  -0.218
  C  C206  1  0.407750  0.815500  0.750000  1.0  0.6522
  C  C207  1  0.459750  0.919500  0.750000  1.0  -0.1535
  C  C208  1  0.555000  0.110000  0.750000  1.0  -0.2186
  N  N209  1  0.112300  0.506440  0.412810  1.0  -0.0453
  N  N210  1  0.228510  0.561560  0.517620  1.0  -0.3827
  N  N211  1  0.493560  0.605860  0.412810  1.0  -0.0428
  N  N212  1  0.438440  0.666950  0.517620  1.0  -0.3826
  N  N213  1  0.394140  0.887700  0.412810  1.0  -0.0454
  N  N214  1  0.333050  0.771490  0.517620  1.0  -0.3837
  N  N215  1  0.493560  0.887700  0.087190  1.0  -0.0449
  N  N216  1  0.438440  0.771490  0.982380  1.0  -0.3828
  N  N217  1  0.394140  0.506440  0.087190  1.0  -0.0446
  N  N218  1  0.333050  0.561560  0.982380  1.0  -0.3822
  N  N219  1  0.112300  0.605860  0.087190  1.0  -0.0435
  N  N220  1  0.228510  0.666950  0.982380  1.0  -0.3815
  N  N221  1  0.887700  0.493560  0.587190  1.0  -0.045
  N  N222  1  0.771490  0.438440  0.482380  1.0  -0.3824
  N  N223  1  0.506440  0.394140  0.587190  1.0  -0.0436
  N  N224  1  0.561560  0.333050  0.482380  1.0  -0.3813
  N  N225  1  0.605860  0.112300  0.587190  1.0  -0.0447
  N  N226  1  0.666950  0.228510  0.482380  1.0  -0.3829
  N  N227  1  0.506440  0.112300  0.912810  1.0  -0.0456
  N  N228  1  0.561560  0.228510  0.017620  1.0  -0.3842
  N  N229  1  0.605860  0.493560  0.912810  1.0  -0.0452
  N  N230  1  0.666950  0.438440  0.017620  1.0  -0.3826
  N  N231  1  0.887700  0.394140  0.912810  1.0  -0.0429
  N  N232  1  0.771490  0.333050  0.017620  1.0  -0.3822
  O  O233  1  0.777730  0.424570  0.181500  1.0  -0.5932
  O  O234  1  0.575430  0.353160  0.181500  1.0  -0.5932
  O  O235  1  0.646840  0.222270  0.181500  1.0  -0.5936
  O  O236  1  0.575430  0.222270  0.318500  1.0  -0.5932
  O  O237  1  0.646840  0.424570  0.318500  1.0  -0.5938
  O  O238  1  0.777730  0.353160  0.318500  1.0  -0.5928
  O  O239  1  0.222270  0.575430  0.818500  1.0  -0.5938
  O  O240  1  0.424570  0.646840  0.818500  1.0  -0.593
  O  O241  1  0.353160  0.777730  0.818500  1.0  -0.5934
  O  O242  1  0.424570  0.777730  0.681500  1.0  -0.5935
  O  O243  1  0.353160  0.575430  0.681500  1.0  -0.5933
  O  O244  1  0.222270  0.646840  0.681500  1.0  -0.5932
