# generated using pymatgen
data_Co2H39C63(N2O)6
_symmetry_space_group_name_H-M   'P 1'
_cell_length_a   17.03000000
_cell_length_b   17.03000000
_cell_length_c   13.90800000
_cell_angle_alpha   90.00000000
_cell_angle_beta   90.00000000
_cell_angle_gamma   120.00000000
_symmetry_Int_Tables_number   1
_chemical_formula_structural   Co2H39C63(N2O)6
_chemical_formula_sum   'Co4 H78 C126 N24 O12'
_cell_volume   3493.20931543
_cell_formula_units_Z   2
loop_
 _symmetry_equiv_pos_site_id
 _symmetry_equiv_pos_as_xyz
  1  'x, y, z'
loop_
 _atom_site_type_symbol
 _atom_site_label
 _atom_site_symmetry_multiplicity
 _atom_site_fract_x
 _atom_site_fract_y
 _atom_site_fract_z
 _atom_site_occupancy
 _atom_site_charge
  Co  Co1  1  0.666667  0.333333  0.602020  1.0  0.876
  Co  Co2  1  0.666667  0.333333  0.897980  1.0  0.8763
  Co  Co3  1  0.333333  0.666667  0.397980  1.0  0.8763
  Co  Co4  1  0.333333  0.666667  0.102020  1.0  0.876
  H  H5  1  0.933000  0.506900  0.886000  1.0  0.1048
  H  H6  1  0.212500  0.577200  0.913400  1.0  0.0886
  H  H7  1  0.224300  0.787800  0.146900  1.0  0.1166
  H  H8  1  0.110200  0.823700  0.153400  1.0  0.0974
  H  H9  1  0.990600  0.761300  0.047200  1.0  0.0952
  H  H10  1  0.978900  0.658600  0.930400  1.0  0.1182
  H  H11  1  0.493100  0.426100  0.886000  1.0  0.1052
  H  H12  1  0.422800  0.635300  0.913400  1.0  0.0898
  H  H13  1  0.212200  0.436500  0.146900  1.0  0.1149
  H  H14  1  0.176300  0.286500  0.153400  1.0  0.0977
  H  H15  1  0.238700  0.229300  0.047200  1.0  0.0942
  H  H16  1  0.341400  0.320300  0.930400  1.0  0.1189
  H  H17  1  0.573900  0.067000  0.886000  1.0  0.1047
  H  H18  1  0.364700  0.787500  0.913400  1.0  0.0885
  H  H19  1  0.563500  0.775700  0.146900  1.0  0.1162
  H  H20  1  0.713500  0.889800  0.153400  1.0  0.0974
  H  H21  1  0.770700  0.009400  0.047200  1.0  0.0947
  H  H22  1  0.679700  0.021100  0.930400  1.0  0.1183
  H  H23  1  0.493100  0.067000  0.614000  1.0  0.1046
  H  H24  1  0.422800  0.787500  0.586600  1.0  0.089
  H  H25  1  0.212200  0.775700  0.353100  1.0  0.1171
  H  H26  1  0.176300  0.889800  0.346600  1.0  0.0969
  H  H27  1  0.238700  0.009400  0.452800  1.0  0.0951
  H  H28  1  0.341400  0.021100  0.569600  1.0  0.1178
  H  H29  1  0.573900  0.506900  0.614000  1.0  0.1048
  H  H30  1  0.364700  0.577200  0.586600  1.0  0.0888
  H  H31  1  0.563500  0.787800  0.353100  1.0  0.1174
  H  H32  1  0.713500  0.823700  0.346600  1.0  0.0975
  H  H33  1  0.770700  0.761300  0.452800  1.0  0.094
  H  H34  1  0.679700  0.658600  0.569600  1.0  0.1187
  H  H35  1  0.933000  0.426100  0.614000  1.0  0.1044
  H  H36  1  0.212500  0.635300  0.586600  1.0  0.0896
  H  H37  1  0.224300  0.436500  0.353100  1.0  0.1149
  H  H38  1  0.110200  0.286500  0.346600  1.0  0.0971
  H  H39  1  0.990600  0.229300  0.452800  1.0  0.0943
  H  H40  1  0.978900  0.320300  0.569600  1.0  0.119
  H  H41  1  0.067000  0.493100  0.114000  1.0  0.1047
  H  H42  1  0.787500  0.422800  0.086600  1.0  0.0886
  H  H43  1  0.775700  0.212200  0.853100  1.0  0.1167
  H  H44  1  0.889800  0.176300  0.846600  1.0  0.0965
  H  H45  1  0.009400  0.238700  0.952800  1.0  0.0938
  H  H46  1  0.021100  0.341400  0.069600  1.0  0.1194
  H  H47  1  0.506900  0.573900  0.114000  1.0  0.1046
  H  H48  1  0.577200  0.364700  0.086600  1.0  0.0898
  H  H49  1  0.787800  0.563500  0.853100  1.0  0.1153
  H  H50  1  0.823700  0.713500  0.846600  1.0  0.0976
  H  H51  1  0.761300  0.770700  0.952800  1.0  0.0947
  H  H52  1  0.658600  0.679700  0.069600  1.0  0.1183
  H  H53  1  0.426100  0.933000  0.114000  1.0  0.105
  H  H54  1  0.635300  0.212500  0.086600  1.0  0.0885
  H  H55  1  0.436500  0.224300  0.853100  1.0  0.117
  H  H56  1  0.286500  0.110200  0.846600  1.0  0.0965
  H  H57  1  0.229300  0.990600  0.952800  1.0  0.0942
  H  H58  1  0.320300  0.978900  0.069600  1.0  0.1177
  H  H59  1  0.506900  0.933000  0.386000  1.0  0.1052
  H  H60  1  0.577200  0.212500  0.413400  1.0  0.0884
  H  H61  1  0.787800  0.224300  0.646900  1.0  0.1169
  H  H62  1  0.823700  0.110200  0.653400  1.0  0.0977
  H  H63  1  0.761300  0.990600  0.547200  1.0  0.0942
  H  H64  1  0.658600  0.978900  0.430400  1.0  0.1181
  H  H65  1  0.426100  0.493100  0.386000  1.0  0.105
  H  H66  1  0.635300  0.422800  0.413400  1.0  0.0887
  H  H67  1  0.436500  0.212200  0.646900  1.0  0.1176
  H  H68  1  0.286500  0.176300  0.653400  1.0  0.0976
  H  H69  1  0.229300  0.238700  0.547200  1.0  0.0965
  H  H70  1  0.320300  0.341400  0.430400  1.0  0.1192
  H  H71  1  0.067000  0.573900  0.386000  1.0  0.1048
  H  H72  1  0.787500  0.364700  0.413400  1.0  0.0897
  H  H73  1  0.775700  0.563500  0.646900  1.0  0.116
  H  H74  1  0.889800  0.713500  0.653400  1.0  0.0976
  H  H75  1  0.009400  0.770700  0.547200  1.0  0.0943
  H  H76  1  0.021100  0.679700  0.430400  1.0  0.1185
  H  H77  1  0.168000  0.584000  0.750000  1.0  0.1174
  H  H78  1  0.416000  0.584000  0.750000  1.0  0.1175
  H  H79  1  0.416000  0.832000  0.750000  1.0  0.1163
  H  H80  1  0.832000  0.416000  0.250000  1.0  0.1177
  H  H81  1  0.584000  0.416000  0.250000  1.0  0.1176
  H  H82  1  0.584000  0.168000  0.250000  1.0  0.1156
  C  C83  1  0.964500  0.506600  0.831500  1.0  -0.168
  C  C84  1  0.057900  0.553300  0.830300  1.0  0.166
  C  C85  1  0.188100  0.609600  0.941800  1.0  0.2111
  C  C86  1  0.168500  0.699900  0.034600  1.0  0.144
  C  C87  1  0.175700  0.761900  0.104300  1.0  -0.1412
  C  C88  1  0.107700  0.782900  0.107300  1.0  -0.0983
  C  C89  1  0.035000  0.744800  0.043100  1.0  -0.0933
  C  C90  1  0.027000  0.683400  0.973600  1.0  -0.1413
  C  C91  1  0.094200  0.660800  0.971600  1.0  0.0767
  C  C92  1  0.493400  0.457900  0.831500  1.0  -0.1688
  C  C93  1  0.446700  0.504600  0.830300  1.0  0.1665
  C  C94  1  0.390400  0.578500  0.941800  1.0  0.2123
  C  C95  1  0.300100  0.468600  0.034600  1.0  0.1439
  C  C96  1  0.238100  0.413800  0.104300  1.0  -0.1388
  C  C97  1  0.217100  0.324800  0.107300  1.0  -0.0955
  C  C98  1  0.255200  0.290200  0.043100  1.0  -0.092
  C  C99  1  0.316600  0.343600  0.973600  1.0  -0.1432
  C  C100  1  0.339200  0.433400  0.971600  1.0  0.0763
  C  C101  1  0.542100  0.035500  0.831500  1.0  -0.1687
  C  C102  1  0.495400  0.942100  0.830300  1.0  0.1659
  C  C103  1  0.421500  0.811900  0.941800  1.0  0.2125
  C  C104  1  0.531400  0.831500  0.034600  1.0  0.1439
  C  C105  1  0.586200  0.824300  0.104300  1.0  -0.138
  C  C106  1  0.675200  0.892300  0.107300  1.0  -0.0972
  C  C107  1  0.709800  0.965000  0.043100  1.0  -0.093
  C  C108  1  0.656400  0.973000  0.973600  1.0  -0.1397
  C  C109  1  0.566600  0.905800  0.971600  1.0  0.0774
  C  C110  1  0.493400  0.035500  0.668500  1.0  -0.1697
  C  C111  1  0.446700  0.942100  0.669700  1.0  0.1662
  C  C112  1  0.390400  0.811900  0.558200  1.0  0.2121
  C  C113  1  0.300100  0.831500  0.465400  1.0  0.1443
  C  C114  1  0.238100  0.824300  0.395700  1.0  -0.1377
  C  C115  1  0.217100  0.892300  0.392700  1.0  -0.0993
  C  C116  1  0.255200  0.965000  0.456900  1.0  -0.0953
  C  C117  1  0.316600  0.973000  0.526400  1.0  -0.1398
  C  C118  1  0.339200  0.905800  0.528400  1.0  0.078
  C  C119  1  0.542100  0.506600  0.668500  1.0  -0.1689
  C  C120  1  0.495400  0.553300  0.669700  1.0  0.1666
  C  C121  1  0.421500  0.609600  0.558200  1.0  0.2129
  C  C122  1  0.531400  0.699900  0.465400  1.0  0.1441
  C  C123  1  0.586200  0.761900  0.395700  1.0  -0.1409
  C  C124  1  0.675200  0.782900  0.392700  1.0  -0.098
  C  C125  1  0.709800  0.744800  0.456900  1.0  -0.0898
  C  C126  1  0.656400  0.683400  0.526400  1.0  -0.1416
  C  C127  1  0.566600  0.660800  0.528400  1.0  0.0775
  C  C128  1  0.964500  0.457900  0.668500  1.0  -0.1708
  C  C129  1  0.057900  0.504600  0.669700  1.0  0.1674
  C  C130  1  0.188100  0.578500  0.558200  1.0  0.2116
  C  C131  1  0.168500  0.468600  0.465400  1.0  0.1425
  C  C132  1  0.175700  0.413800  0.395700  1.0  -0.1404
  C  C133  1  0.107700  0.324800  0.392700  1.0  -0.0957
  C  C134  1  0.035000  0.290200  0.456900  1.0  -0.0929
  C  C135  1  0.027000  0.343600  0.526400  1.0  -0.1428
  C  C136  1  0.094200  0.433400  0.528400  1.0  0.0774
  C  C137  1  0.035500  0.493400  0.168500  1.0  -0.1691
  C  C138  1  0.942100  0.446700  0.169700  1.0  0.1669
  C  C139  1  0.811900  0.390400  0.058200  1.0  0.2125
  C  C140  1  0.831500  0.300100  0.965400  1.0  0.1438
  C  C141  1  0.824300  0.238100  0.895700  1.0  -0.1408
  C  C142  1  0.892300  0.217100  0.892700  1.0  -0.0981
  C  C143  1  0.965000  0.255200  0.956900  1.0  -0.0899
  C  C144  1  0.973000  0.316600  0.026400  1.0  -0.1411
  C  C145  1  0.905800  0.339200  0.028400  1.0  0.0778
  C  C146  1  0.506600  0.542100  0.168500  1.0  -0.171
  C  C147  1  0.553300  0.495400  0.169700  1.0  0.1675
  C  C148  1  0.609600  0.421500  0.058200  1.0  0.2126
  C  C149  1  0.699900  0.531400  0.965400  1.0  0.1428
  C  C150  1  0.761900  0.586200  0.895700  1.0  -0.1417
  C  C151  1  0.782900  0.675200  0.892700  1.0  -0.0954
  C  C152  1  0.744800  0.709800  0.956900  1.0  -0.0869
  C  C153  1  0.683400  0.656400  0.026400  1.0  -0.1434
  C  C154  1  0.660800  0.566600  0.028400  1.0  0.0775
  C  C155  1  0.457900  0.964500  0.168500  1.0  -0.1699
  C  C156  1  0.504600  0.057900  0.169700  1.0  0.1663
  C  C157  1  0.578500  0.188100  0.058200  1.0  0.212
  C  C158  1  0.468600  0.168500  0.965400  1.0  0.1445
  C  C159  1  0.413800  0.175700  0.895700  1.0  -0.1371
  C  C160  1  0.324800  0.107700  0.892700  1.0  -0.0994
  C  C161  1  0.290200  0.035000  0.956900  1.0  -0.0961
  C  C162  1  0.343600  0.027000  0.026400  1.0  -0.1406
  C  C163  1  0.433400  0.094200  0.028400  1.0  0.0785
  C  C164  1  0.506600  0.964500  0.331500  1.0  -0.1681
  C  C165  1  0.553300  0.057900  0.330300  1.0  0.1659
  C  C166  1  0.609600  0.188100  0.441800  1.0  0.2122
  C  C167  1  0.699900  0.168500  0.534600  1.0  0.144
  C  C168  1  0.761900  0.175700  0.604300  1.0  -0.1374
  C  C169  1  0.782900  0.107700  0.607300  1.0  -0.0972
  C  C170  1  0.744800  0.035000  0.543100  1.0  -0.0941
  C  C171  1  0.683400  0.027000  0.473600  1.0  -0.1406
  C  C172  1  0.660800  0.094200  0.471600  1.0  0.0774
  C  C173  1  0.457900  0.493400  0.331500  1.0  -0.1679
  C  C174  1  0.504600  0.446700  0.330300  1.0  0.1664
  C  C175  1  0.578500  0.390400  0.441800  1.0  0.2117
  C  C176  1  0.468600  0.300100  0.534600  1.0  0.1437
  C  C177  1  0.413800  0.238100  0.604300  1.0  -0.1415
  C  C178  1  0.324800  0.217100  0.607300  1.0  -0.0976
  C  C179  1  0.290200  0.255200  0.543100  1.0  -0.0935
  C  C180  1  0.343600  0.316600  0.473600  1.0  -0.1413
  C  C181  1  0.433400  0.339200  0.471600  1.0  0.0765
  C  C182  1  0.035500  0.542100  0.331500  1.0  -0.1691
  C  C183  1  0.942100  0.495400  0.330300  1.0  0.1665
  C  C184  1  0.811900  0.421500  0.441800  1.0  0.2125
  C  C185  1  0.831500  0.531400  0.534600  1.0  0.144
  C  C186  1  0.824300  0.586200  0.604300  1.0  -0.1401
  C  C187  1  0.892300  0.675200  0.607300  1.0  -0.0958
  C  C188  1  0.965000  0.709800  0.543100  1.0  -0.0851
  C  C189  1  0.973000  0.656400  0.473600  1.0  -0.1432
  C  C190  1  0.905800  0.566600  0.471600  1.0  0.0769
  C  C191  1  0.815600  0.407800  0.750000  1.0  0.6499
  C  C192  1  0.918200  0.459100  0.750000  1.0  -0.1412
  C  C193  1  0.105000  0.552500  0.750000  1.0  -0.2303
  C  C194  1  0.592200  0.407800  0.750000  1.0  0.6505
  C  C195  1  0.540900  0.459100  0.750000  1.0  -0.1416
  C  C196  1  0.447500  0.552500  0.750000  1.0  -0.232
  C  C197  1  0.592200  0.184400  0.750000  1.0  0.6538
  C  C198  1  0.540900  0.081800  0.750000  1.0  -0.1391
  C  C199  1  0.447500  0.895000  0.750000  1.0  -0.2279
  C  C200  1  0.184400  0.592200  0.250000  1.0  0.6511
  C  C201  1  0.081800  0.540900  0.250000  1.0  -0.1417
  C  C202  1  0.895000  0.447500  0.250000  1.0  -0.2318
  C  C203  1  0.407800  0.592200  0.250000  1.0  0.6505
  C  C204  1  0.459100  0.540900  0.250000  1.0  -0.1414
  C  C205  1  0.552500  0.447500  0.250000  1.0  -0.2299
  C  C206  1  0.407800  0.815600  0.250000  1.0  0.6527
  C  C207  1  0.459100  0.918200  0.250000  1.0  -0.1392
  C  C208  1  0.552500  0.105000  0.250000  1.0  -0.2274
  N  N209  1  0.108500  0.603100  0.913200  1.0  -0.0392
  N  N210  1  0.227400  0.667200  0.014800  1.0  -0.4345
  N  N211  1  0.396900  0.505400  0.913200  1.0  -0.0408
  N  N212  1  0.332800  0.560200  0.014800  1.0  -0.4345
  N  N213  1  0.494600  0.891500  0.913200  1.0  -0.0408
  N  N214  1  0.439800  0.772600  0.014800  1.0  -0.4353
  N  N215  1  0.396900  0.891500  0.586800  1.0  -0.0399
  N  N216  1  0.332800  0.772600  0.485200  1.0  -0.4354
  N  N217  1  0.494600  0.603100  0.586800  1.0  -0.0393
  N  N218  1  0.439800  0.667200  0.485200  1.0  -0.4344
  N  N219  1  0.108500  0.505400  0.586800  1.0  -0.0406
  N  N220  1  0.227400  0.560200  0.485200  1.0  -0.4343
  N  N221  1  0.891500  0.396900  0.086800  1.0  -0.0391
  N  N222  1  0.772600  0.332800  0.985200  1.0  -0.434
  N  N223  1  0.603100  0.494600  0.086800  1.0  -0.0411
  N  N224  1  0.667200  0.439800  0.985200  1.0  -0.4349
  N  N225  1  0.505400  0.108500  0.086800  1.0  -0.0398
  N  N226  1  0.560200  0.227400  0.985200  1.0  -0.4363
  N  N227  1  0.603100  0.108500  0.413200  1.0  -0.0407
  N  N228  1  0.667200  0.227400  0.514800  1.0  -0.4368
  N  N229  1  0.505400  0.396900  0.413200  1.0  -0.0394
  N  N230  1  0.560200  0.332800  0.514800  1.0  -0.4336
  N  N231  1  0.891500  0.494600  0.413200  1.0  -0.0408
  N  N232  1  0.772600  0.439800  0.514800  1.0  -0.4344
  O  O233  1  0.778000  0.353600  0.680890  1.0  -0.5966
  O  O234  1  0.646400  0.424400  0.680890  1.0  -0.5972
  O  O235  1  0.575600  0.222000  0.680890  1.0  -0.597
  O  O236  1  0.646400  0.222000  0.819110  1.0  -0.5971
  O  O237  1  0.575600  0.353600  0.819110  1.0  -0.5966
  O  O238  1  0.778000  0.424400  0.819110  1.0  -0.5967
  O  O239  1  0.222000  0.646400  0.319110  1.0  -0.597
  O  O240  1  0.353600  0.575600  0.319110  1.0  -0.5969
  O  O241  1  0.424400  0.778000  0.319110  1.0  -0.5973
  O  O242  1  0.353600  0.778000  0.180890  1.0  -0.5968
  O  O243  1  0.424400  0.646400  0.180890  1.0  -0.5969
  O  O244  1  0.222000  0.575600  0.180890  1.0  -0.5972
