# generated using pymatgen
data_Ni2H39C63(N2O)6
_symmetry_space_group_name_H-M   'P 1'
_cell_length_a   16.94600000
_cell_length_b   16.94600000
_cell_length_c   13.83800000
_cell_angle_alpha   90.00000000
_cell_angle_beta   90.00000000
_cell_angle_gamma   120.00000000
_symmetry_Int_Tables_number   1
_chemical_formula_structural   Ni2H39C63(N2O)6
_chemical_formula_sum   'Ni4 H78 C126 N24 O12'
_cell_volume   3441.42541856
_cell_formula_units_Z   2
loop_
 _symmetry_equiv_pos_site_id
 _symmetry_equiv_pos_as_xyz
  1  'x, y, z'
loop_
 _atom_site_type_symbol
 _atom_site_label
 _atom_site_symmetry_multiplicity
 _atom_site_fract_x
 _atom_site_fract_y
 _atom_site_fract_z
 _atom_site_occupancy
 _atom_site_charge
  Ni  Ni1  1  0.666667  0.333333  0.601590  1.0  0.8302
  Ni  Ni2  1  0.666667  0.333333  0.898410  1.0  0.8302
  Ni  Ni3  1  0.333333  0.666667  0.398410  1.0  0.8301
  Ni  Ni4  1  0.333333  0.666667  0.101590  1.0  0.8301
  H  H5  1  0.932900  0.427300  0.887800  1.0  0.1012
  H  H6  1  0.214900  0.635700  0.913900  1.0  0.0809
  H  H7  1  0.223600  0.436400  0.151100  1.0  0.1088
  H  H8  1  0.107400  0.287200  0.160100  1.0  0.0987
  H  H9  1  0.986000  0.229600  0.053400  1.0  0.1006
  H  H10  1  0.975800  0.320900  0.935200  1.0  0.1153
  H  H11  1  0.572700  0.505600  0.887800  1.0  0.1016
  H  H12  1  0.364300  0.579200  0.913900  1.0  0.0801
  H  H13  1  0.563600  0.787200  0.151100  1.0  0.1105
  H  H14  1  0.712800  0.820200  0.160100  1.0  0.098
  H  H15  1  0.770400  0.756400  0.053400  1.0  0.099
  H  H16  1  0.679100  0.654900  0.935200  1.0  0.1157
  H  H17  1  0.494400  0.067100  0.887800  1.0  0.1011
  H  H18  1  0.420800  0.785100  0.913900  1.0  0.0799
  H  H19  1  0.212800  0.776400  0.151100  1.0  0.1113
  H  H20  1  0.179800  0.892600  0.160100  1.0  0.0981
  H  H21  1  0.243600  0.014000  0.053400  1.0  0.0998
  H  H22  1  0.345100  0.024200  0.935200  1.0  0.1154
  H  H23  1  0.572700  0.067100  0.612200  1.0  0.1012
  H  H24  1  0.364300  0.785100  0.586100  1.0  0.0801
  H  H25  1  0.563600  0.776400  0.348900  1.0  0.1112
  H  H26  1  0.712800  0.892600  0.339900  1.0  0.0997
  H  H27  1  0.770400  0.014000  0.446600  1.0  0.0998
  H  H28  1  0.679100  0.024200  0.564800  1.0  0.1151
  H  H29  1  0.494400  0.427300  0.612200  1.0  0.1012
  H  H30  1  0.420800  0.635700  0.586100  1.0  0.0813
  H  H31  1  0.212800  0.436400  0.348900  1.0  0.1091
  H  H32  1  0.179800  0.287200  0.339900  1.0  0.0998
  H  H33  1  0.243600  0.229600  0.446600  1.0  0.1007
  H  H34  1  0.345100  0.320900  0.564800  1.0  0.1157
  H  H35  1  0.932900  0.505600  0.612200  1.0  0.1016
  H  H36  1  0.214900  0.579200  0.586100  1.0  0.0804
  H  H37  1  0.223600  0.787200  0.348900  1.0  0.1112
  H  H38  1  0.107400  0.820200  0.339900  1.0  0.0998
  H  H39  1  0.986000  0.756400  0.446600  1.0  0.0983
  H  H40  1  0.975800  0.654900  0.564800  1.0  0.1159
  H  H41  1  0.067100  0.572700  0.112200  1.0  0.1014
  H  H42  1  0.785100  0.364300  0.086100  1.0  0.0813
  H  H43  1  0.776400  0.563600  0.848900  1.0  0.1095
  H  H44  1  0.892600  0.712800  0.839900  1.0  0.0995
  H  H45  1  0.014000  0.770400  0.946600  1.0  0.101
  H  H46  1  0.024200  0.679100  0.064800  1.0  0.1148
  H  H47  1  0.427300  0.494400  0.112200  1.0  0.1012
  H  H48  1  0.635700  0.420800  0.086100  1.0  0.0805
  H  H49  1  0.436400  0.212800  0.848900  1.0  0.1109
  H  H50  1  0.287200  0.179800  0.839900  1.0  0.097
  H  H51  1  0.229600  0.243600  0.946600  1.0  0.0984
  H  H52  1  0.320900  0.345100  0.064800  1.0  0.1163
  H  H53  1  0.505600  0.932900  0.112200  1.0  0.1015
  H  H54  1  0.579200  0.214900  0.086100  1.0  0.0803
  H  H55  1  0.787200  0.223600  0.848900  1.0  0.111
  H  H56  1  0.820200  0.107400  0.839900  1.0  0.0977
  H  H57  1  0.756400  0.986000  0.946600  1.0  0.0995
  H  H58  1  0.654900  0.975800  0.064800  1.0  0.1152
  H  H59  1  0.427300  0.932900  0.387800  1.0  0.1015
  H  H60  1  0.635700  0.214900  0.413900  1.0  0.0796
  H  H61  1  0.436400  0.223600  0.651100  1.0  0.1119
  H  H62  1  0.287200  0.107400  0.660100  1.0  0.0993
  H  H63  1  0.229600  0.986000  0.553400  1.0  0.1002
  H  H64  1  0.320900  0.975800  0.435200  1.0  0.1146
  H  H65  1  0.505600  0.572700  0.387800  1.0  0.1011
  H  H66  1  0.579200  0.364300  0.413900  1.0  0.0811
  H  H67  1  0.787200  0.563600  0.651100  1.0  0.1099
  H  H68  1  0.820200  0.712800  0.660100  1.0  0.1003
  H  H69  1  0.756400  0.770400  0.553400  1.0  0.1002
  H  H70  1  0.654900  0.679100  0.435200  1.0  0.1154
  H  H71  1  0.067100  0.494400  0.387800  1.0  0.1019
  H  H72  1  0.785100  0.420800  0.413900  1.0  0.0802
  H  H73  1  0.776400  0.212800  0.651100  1.0  0.1112
  H  H74  1  0.892600  0.179800  0.660100  1.0  0.0997
  H  H75  1  0.014000  0.243600  0.553400  1.0  0.0978
  H  H76  1  0.024200  0.345100  0.435200  1.0  0.1163
  H  H77  1  0.169800  0.584900  0.750000  1.0  0.1192
  H  H78  1  0.415100  0.584900  0.750000  1.0  0.1192
  H  H79  1  0.415100  0.830200  0.750000  1.0  0.1177
  H  H80  1  0.830200  0.415100  0.250000  1.0  0.1193
  H  H81  1  0.584900  0.415100  0.250000  1.0  0.1195
  H  H82  1  0.584900  0.169800  0.250000  1.0  0.1178
  C  C83  1  0.964330  0.458380  0.832540  1.0  -0.1504
  C  C84  1  0.057990  0.504730  0.831070  1.0  0.1561
  C  C85  1  0.189700  0.578760  0.943070  1.0  0.22
  C  C86  1  0.169020  0.469550  0.038030  1.0  0.1335
  C  C87  1  0.174590  0.414040  0.108520  1.0  -0.1215
  C  C88  1  0.105400  0.325340  0.113100  1.0  -0.1138
  C  C89  1  0.031400  0.290400  0.048400  1.0  -0.097
  C  C90  1  0.024620  0.343870  0.978010  1.0  -0.1357
  C  C91  1  0.094350  0.433750  0.974210  1.0  0.0676
  C  C92  1  0.541620  0.505950  0.832540  1.0  -0.1495
  C  C93  1  0.495270  0.553260  0.831070  1.0  0.1553
  C  C94  1  0.421240  0.610940  0.943070  1.0  0.2211
  C  C95  1  0.530450  0.699470  0.038030  1.0  0.133
  C  C96  1  0.585960  0.760550  0.108520  1.0  -0.1217
  C  C97  1  0.674660  0.780060  0.113100  1.0  -0.1156
  C  C98  1  0.709600  0.741000  0.048400  1.0  -0.097
  C  C99  1  0.656130  0.680750  0.978010  1.0  -0.1326
  C  C100  1  0.566250  0.660600  0.974210  1.0  0.0679
  C  C101  1  0.494050  0.035670  0.832540  1.0  -0.15
  C  C102  1  0.446740  0.942010  0.831070  1.0  0.1551
  C  C103  1  0.389060  0.810300  0.943070  1.0  0.22
  C  C104  1  0.300530  0.830980  0.038030  1.0  0.1318
  C  C105  1  0.239450  0.825410  0.108520  1.0  -0.1187
  C  C106  1  0.219940  0.894600  0.113100  1.0  -0.1162
  C  C107  1  0.259000  0.968600  0.048400  1.0  -0.0995
  C  C108  1  0.319250  0.975380  0.978010  1.0  -0.1331
  C  C109  1  0.339400  0.905650  0.974210  1.0  0.0698
  C  C110  1  0.541620  0.035670  0.667460  1.0  -0.1489
  C  C111  1  0.495270  0.942010  0.668930  1.0  0.1551
  C  C112  1  0.421240  0.810300  0.556930  1.0  0.2196
  C  C113  1  0.530450  0.830980  0.461970  1.0  0.1343
  C  C114  1  0.585960  0.825410  0.391480  1.0  -0.1206
  C  C115  1  0.674660  0.894600  0.386900  1.0  -0.1157
  C  C116  1  0.709600  0.968600  0.451600  1.0  -0.0978
  C  C117  1  0.656130  0.975380  0.521990  1.0  -0.1326
  C  C118  1  0.566250  0.905650  0.525790  1.0  0.0693
  C  C119  1  0.494050  0.458380  0.667460  1.0  -0.1493
  C  C120  1  0.446740  0.504730  0.668930  1.0  0.1553
  C  C121  1  0.389060  0.578760  0.556930  1.0  0.2208
  C  C122  1  0.300530  0.469550  0.461970  1.0  0.1356
  C  C123  1  0.239450  0.414040  0.391480  1.0  -0.1213
  C  C124  1  0.219940  0.325340  0.386900  1.0  -0.115
  C  C125  1  0.259000  0.290400  0.451600  1.0  -0.0939
  C  C126  1  0.319250  0.343870  0.521990  1.0  -0.1358
  C  C127  1  0.339400  0.433750  0.525790  1.0  0.0687
  C  C128  1  0.964330  0.505950  0.667460  1.0  -0.1487
  C  C129  1  0.057990  0.553260  0.668930  1.0  0.1551
  C  C130  1  0.189700  0.610940  0.556930  1.0  0.2205
  C  C131  1  0.169020  0.699470  0.461970  1.0  0.1315
  C  C132  1  0.174590  0.760550  0.391480  1.0  -0.1229
  C  C133  1  0.105400  0.780060  0.386900  1.0  -0.1171
  C  C134  1  0.031400  0.741000  0.451600  1.0  -0.0973
  C  C135  1  0.024620  0.680750  0.521990  1.0  -0.134
  C  C136  1  0.094350  0.660600  0.525790  1.0  0.0679
  C  C137  1  0.035670  0.541620  0.167460  1.0  -0.1494
  C  C138  1  0.942010  0.495270  0.168930  1.0  0.156
  C  C139  1  0.810300  0.421240  0.056930  1.0  0.2202
  C  C140  1  0.830980  0.530450  0.961970  1.0  0.1354
  C  C141  1  0.825410  0.585960  0.891480  1.0  -0.1225
  C  C142  1  0.894600  0.674660  0.886900  1.0  -0.1144
  C  C143  1  0.968600  0.709600  0.951600  1.0  -0.0891
  C  C144  1  0.975380  0.656130  0.021990  1.0  -0.1357
  C  C145  1  0.905650  0.566250  0.025790  1.0  0.0682
  C  C146  1  0.458380  0.494050  0.167460  1.0  -0.1486
  C  C147  1  0.504730  0.446740  0.168930  1.0  0.1559
  C  C148  1  0.578760  0.389060  0.056930  1.0  0.2204
  C  C149  1  0.469550  0.300530  0.961970  1.0  0.1347
  C  C150  1  0.414040  0.239450  0.891480  1.0  -0.124
  C  C151  1  0.325340  0.219940  0.886900  1.0  -0.1173
  C  C152  1  0.290400  0.259000  0.951600  1.0  -0.0959
  C  C153  1  0.343870  0.319250  0.021990  1.0  -0.1335
  C  C154  1  0.433750  0.339400  0.025790  1.0  0.0678
  C  C155  1  0.505950  0.964330  0.167460  1.0  -0.1492
  C  C156  1  0.553260  0.057990  0.168930  1.0  0.1557
  C  C157  1  0.610940  0.189700  0.056930  1.0  0.2198
  C  C158  1  0.699470  0.169020  0.961970  1.0  0.1321
  C  C159  1  0.760550  0.174590  0.891480  1.0  -0.1207
  C  C160  1  0.780060  0.105400  0.886900  1.0  -0.1151
  C  C161  1  0.741000  0.031400  0.951600  1.0  -0.0972
  C  C162  1  0.680750  0.024620  0.021990  1.0  -0.1341
  C  C163  1  0.660600  0.094350  0.025790  1.0  0.0694
  C  C164  1  0.458380  0.964330  0.332540  1.0  -0.1506
  C  C165  1  0.504730  0.057990  0.331070  1.0  0.1544
  C  C166  1  0.578760  0.189700  0.443070  1.0  0.2194
  C  C167  1  0.469550  0.169020  0.538030  1.0  0.134
  C  C168  1  0.414040  0.174590  0.608520  1.0  -0.1194
  C  C169  1  0.325340  0.105400  0.613100  1.0  -0.1165
  C  C170  1  0.290400  0.031400  0.548400  1.0  -0.0994
  C  C171  1  0.343870  0.024620  0.478010  1.0  -0.1337
  C  C172  1  0.433750  0.094350  0.474210  1.0  0.0693
  C  C173  1  0.505950  0.541620  0.332540  1.0  -0.1508
  C  C174  1  0.553260  0.495270  0.331070  1.0  0.1555
  C  C175  1  0.610940  0.421240  0.443070  1.0  0.2206
  C  C176  1  0.699470  0.530450  0.538030  1.0  0.1338
  C  C177  1  0.760550  0.585960  0.608520  1.0  -0.1218
  C  C178  1  0.780060  0.674660  0.613100  1.0  -0.113
  C  C179  1  0.741000  0.709600  0.548400  1.0  -0.0921
  C  C180  1  0.680750  0.656130  0.478010  1.0  -0.1342
  C  C181  1  0.660600  0.566250  0.474210  1.0  0.0683
  C  C182  1  0.035670  0.494050  0.332540  1.0  -0.1495
  C  C183  1  0.942010  0.446740  0.331070  1.0  0.1543
  C  C184  1  0.810300  0.389060  0.443070  1.0  0.2209
  C  C185  1  0.830980  0.300530  0.538030  1.0  0.1309
  C  C186  1  0.825410  0.239450  0.608520  1.0  -0.1228
  C  C187  1  0.894600  0.219940  0.613100  1.0  -0.1157
  C  C188  1  0.968600  0.259000  0.548400  1.0  -0.0961
  C  C189  1  0.975380  0.319250  0.478010  1.0  -0.1335
  C  C190  1  0.905650  0.339400  0.474210  1.0  0.0675
  C  C191  1  0.814970  0.407490  0.750000  1.0  0.6576
  C  C192  1  0.917140  0.458570  0.750000  1.0  -0.1528
  C  C193  1  0.106400  0.553200  0.750000  1.0  -0.1966
  C  C194  1  0.592520  0.407490  0.750000  1.0  0.6585
  C  C195  1  0.541430  0.458570  0.750000  1.0  -0.1531
  C  C196  1  0.446800  0.553200  0.750000  1.0  -0.199
  C  C197  1  0.592510  0.185030  0.750000  1.0  0.6606
  C  C198  1  0.541430  0.082860  0.750000  1.0  -0.1522
  C  C199  1  0.446800  0.893600  0.750000  1.0  -0.1974
  C  C200  1  0.185030  0.592520  0.250000  1.0  0.6592
  C  C201  1  0.082860  0.541430  0.250000  1.0  -0.1531
  C  C202  1  0.893600  0.446800  0.250000  1.0  -0.1991
  C  C203  1  0.407480  0.592510  0.250000  1.0  0.658
  C  C204  1  0.458570  0.541430  0.250000  1.0  -0.1529
  C  C205  1  0.553200  0.446800  0.250000  1.0  -0.1963
  C  C206  1  0.407490  0.814970  0.250000  1.0  0.6603
  C  C207  1  0.458570  0.917140  0.250000  1.0  -0.1517
  C  C208  1  0.553200  0.106400  0.250000  1.0  -0.1972
  N  N209  1  0.109780  0.506200  0.913940  1.0  -0.0555
  N  N210  1  0.228250  0.561560  0.015930  1.0  -0.4033
  N  N211  1  0.493800  0.603580  0.913940  1.0  -0.0538
  N  N212  1  0.438440  0.666667  0.015930  1.0  -0.4037
  N  N213  1  0.396420  0.890220  0.913940  1.0  -0.0547
  N  N214  1  0.333333  0.771750  0.015930  1.0  -0.4043
  N  N215  1  0.493800  0.890220  0.586060  1.0  -0.0538
  N  N216  1  0.438440  0.771750  0.484070  1.0  -0.4039
  N  N217  1  0.396420  0.506200  0.586060  1.0  -0.0539
  N  N218  1  0.333333  0.561560  0.484070  1.0  -0.4027
  N  N219  1  0.109780  0.603580  0.586060  1.0  -0.0521
  N  N220  1  0.228250  0.666667  0.484070  1.0  -0.4024
  N  N221  1  0.890220  0.493800  0.086060  1.0  -0.054
  N  N222  1  0.771750  0.438440  0.984070  1.0  -0.4031
  N  N223  1  0.506200  0.396420  0.086060  1.0  -0.0523
  N  N224  1  0.561560  0.333333  0.984070  1.0  -0.403
  N  N225  1  0.603580  0.109780  0.086060  1.0  -0.0535
  N  N226  1  0.666667  0.228250  0.984070  1.0  -0.4044
  N  N227  1  0.506200  0.109780  0.413940  1.0  -0.0546
  N  N228  1  0.561560  0.228250  0.515930  1.0  -0.4053
  N  N229  1  0.603580  0.493800  0.413940  1.0  -0.0551
  N  N230  1  0.666667  0.438440  0.515930  1.0  -0.4037
  N  N231  1  0.890220  0.396420  0.413940  1.0  -0.0539
  N  N232  1  0.771750  0.333333  0.515930  1.0  -0.4033
  O  O233  1  0.776760  0.423490  0.680600  1.0  -0.6038
  O  O234  1  0.576510  0.353270  0.680600  1.0  -0.5967
  O  O235  1  0.646730  0.223240  0.680600  1.0  -0.5972
  O  O236  1  0.576510  0.223240  0.819400  1.0  -0.6038
  O  O237  1  0.646730  0.423490  0.819400  1.0  -0.6039
  O  O238  1  0.776760  0.353270  0.819400  1.0  -0.5962
  O  O239  1  0.223240  0.576510  0.319400  1.0  -0.5969
  O  O240  1  0.423490  0.646730  0.319400  1.0  -0.5962
  O  O241  1  0.353270  0.776760  0.319400  1.0  -0.5968
  O  O242  1  0.423490  0.776760  0.180600  1.0  -0.6042
  O  O243  1  0.353270  0.576510  0.180600  1.0  -0.6039
  O  O244  1  0.223240  0.646730  0.180600  1.0  -0.6037
