# generated using pymatgen
data_Ni2H39C63(N2O)6
_symmetry_space_group_name_H-M   'P 1'
_cell_length_a   16.87000000
_cell_length_b   16.87000000
_cell_length_c   13.88600000
_cell_angle_alpha   90.00000000
_cell_angle_beta   90.00000000
_cell_angle_gamma   120.00000000
_symmetry_Int_Tables_number   1
_chemical_formula_structural   Ni2H39C63(N2O)6
_chemical_formula_sum   'Ni4 H78 C126 N24 O12'
_cell_volume   3422.45666478
_cell_formula_units_Z   2
loop_
 _symmetry_equiv_pos_site_id
 _symmetry_equiv_pos_as_xyz
  1  'x, y, z'
loop_
 _atom_site_type_symbol
 _atom_site_label
 _atom_site_symmetry_multiplicity
 _atom_site_fract_x
 _atom_site_fract_y
 _atom_site_fract_z
 _atom_site_occupancy
 _atom_site_charge
  Ni  Ni1  1  0.666667  0.333333  0.102600  1.0  0.8279
  Ni  Ni2  1  0.666667  0.333333  0.397400  1.0  0.8281
  Ni  Ni3  1  0.333333  0.666667  0.897400  1.0  0.8281
  Ni  Ni4  1  0.333333  0.666667  0.602600  1.0  0.8279
  H  H5  1  0.934400  0.507700  0.386400  1.0  0.1003
  H  H6  1  0.215400  0.578100  0.416400  1.0  0.0756
  H  H7  1  0.227100  0.792400  0.647300  1.0  0.1137
  H  H8  1  0.112100  0.830100  0.651600  1.0  0.0988
  H  H9  1  0.994500  0.771100  0.540800  1.0  0.0967
  H  H10  1  0.983500  0.666667  0.424800  1.0  0.1183
  H  H11  1  0.492300  0.426700  0.386400  1.0  0.1008
  H  H12  1  0.421900  0.637300  0.416400  1.0  0.0762
  H  H13  1  0.207600  0.434700  0.647300  1.0  0.1119
  H  H14  1  0.169900  0.282000  0.651600  1.0  0.0999
  H  H15  1  0.228900  0.223400  0.540800  1.0  0.0989
  H  H16  1  0.333400  0.316900  0.424800  1.0  0.1184
  H  H17  1  0.573300  0.065600  0.386400  1.0  0.1002
  H  H18  1  0.362700  0.784600  0.416400  1.0  0.0756
  H  H19  1  0.565300  0.772900  0.647300  1.0  0.1138
  H  H20  1  0.718000  0.887900  0.651600  1.0  0.0986
  H  H21  1  0.776600  0.005500  0.540800  1.0  0.0991
  H  H22  1  0.683100  0.016500  0.424800  1.0  0.1188
  H  H23  1  0.492300  0.065600  0.113600  1.0  0.0995
  H  H24  1  0.421900  0.784600  0.083600  1.0  0.0765
  H  H25  1  0.207600  0.772900  0.852700  1.0  0.1141
  H  H26  1  0.169900  0.887900  0.848400  1.0  0.0983
  H  H27  1  0.228900  0.005500  0.959200  1.0  0.0988
  H  H28  1  0.333400  0.016500  0.075200  1.0  0.1189
  H  H29  1  0.573300  0.507700  0.113600  1.0  0.1001
  H  H30  1  0.362700  0.578100  0.083600  1.0  0.0759
  H  H31  1  0.565300  0.792400  0.852700  1.0  0.114
  H  H32  1  0.718000  0.830100  0.848400  1.0  0.0983
  H  H33  1  0.776600  0.771100  0.959200  1.0  0.0983
  H  H34  1  0.683100  0.666667  0.075200  1.0  0.1187
  H  H35  1  0.934400  0.426700  0.113600  1.0  0.0992
  H  H36  1  0.215400  0.637300  0.083600  1.0  0.0766
  H  H37  1  0.227100  0.434700  0.852700  1.0  0.1119
  H  H38  1  0.112100  0.282000  0.848400  1.0  0.0989
  H  H39  1  0.994500  0.223400  0.959200  1.0  0.0983
  H  H40  1  0.983500  0.316900  0.075200  1.0  0.1194
  H  H41  1  0.065600  0.492300  0.613600  1.0  0.0998
  H  H42  1  0.784600  0.421900  0.583600  1.0  0.0762
  H  H43  1  0.772900  0.207600  0.352700  1.0  0.113
  H  H44  1  0.887900  0.169900  0.348400  1.0  0.098
  H  H45  1  0.005500  0.228900  0.459200  1.0  0.0974
  H  H46  1  0.016500  0.333400  0.575200  1.0  0.1199
  H  H47  1  0.507700  0.573300  0.613600  1.0  0.0996
  H  H48  1  0.578100  0.362700  0.583600  1.0  0.077
  H  H49  1  0.792400  0.565300  0.352700  1.0  0.1121
  H  H50  1  0.830100  0.718000  0.348400  1.0  0.1001
  H  H51  1  0.771100  0.776600  0.459200  1.0  0.0978
  H  H52  1  0.666667  0.683100  0.575200  1.0  0.1193
  H  H53  1  0.426700  0.934400  0.613600  1.0  0.0995
  H  H54  1  0.637300  0.215400  0.583600  1.0  0.0762
  H  H55  1  0.434700  0.227100  0.352700  1.0  0.1136
  H  H56  1  0.282000  0.112100  0.348400  1.0  0.098
  H  H57  1  0.223400  0.994500  0.459200  1.0  0.0988
  H  H58  1  0.316900  0.983500  0.575200  1.0  0.1188
  H  H59  1  0.507700  0.934400  0.886400  1.0  0.1003
  H  H60  1  0.578100  0.215400  0.916400  1.0  0.0755
  H  H61  1  0.792400  0.227100  0.147300  1.0  0.114
  H  H62  1  0.830100  0.112100  0.151600  1.0  0.0989
  H  H63  1  0.771100  0.994500  0.040800  1.0  0.099
  H  H64  1  0.666667  0.983500  0.924800  1.0  0.1188
  H  H65  1  0.426700  0.492300  0.886400  1.0  0.1004
  H  H66  1  0.637300  0.421900  0.916400  1.0  0.0758
  H  H67  1  0.434700  0.207600  0.147300  1.0  0.1141
  H  H68  1  0.282000  0.169900  0.151600  1.0  0.0987
  H  H69  1  0.223400  0.228900  0.040800  1.0  0.0976
  H  H70  1  0.316900  0.333400  0.924800  1.0  0.1199
  H  H71  1  0.065600  0.573300  0.886400  1.0  0.1003
  H  H72  1  0.784600  0.362700  0.916400  1.0  0.0761
  H  H73  1  0.772900  0.565300  0.147300  1.0  0.1133
  H  H74  1  0.887900  0.718000  0.151600  1.0  0.0997
  H  H75  1  0.005500  0.776600  0.040800  1.0  0.098
  H  H76  1  0.016500  0.683100  0.924800  1.0  0.1186
  H  H77  1  0.171400  0.585700  0.250000  1.0  0.1199
  H  H78  1  0.414300  0.585700  0.250000  1.0  0.1204
  H  H79  1  0.414300  0.828600  0.250000  1.0  0.1186
  H  H80  1  0.828600  0.414300  0.750000  1.0  0.1204
  H  H81  1  0.585700  0.414300  0.750000  1.0  0.1201
  H  H82  1  0.585700  0.171400  0.750000  1.0  0.1187
  C  C83  1  0.966000  0.507500  0.331700  1.0  -0.1614
  C  C84  1  0.060100  0.554800  0.330500  1.0  0.1773
  C  C85  1  0.190400  0.610900  0.444200  1.0  0.2073
  C  C86  1  0.170900  0.702800  0.535800  1.0  0.1377
  C  C87  1  0.178500  0.766400  0.604200  1.0  -0.1364
  C  C88  1  0.110100  0.789300  0.605300  1.0  -0.1084
  C  C89  1  0.038100  0.752800  0.538700  1.0  -0.1058
  C  C90  1  0.030600  0.690200  0.469800  1.0  -0.1374
  C  C91  1  0.097000  0.664300  0.471400  1.0  0.088
  C  C92  1  0.492500  0.458500  0.331700  1.0  -0.1623
  C  C93  1  0.445200  0.505300  0.330500  1.0  0.1774
  C  C94  1  0.389100  0.579500  0.444200  1.0  0.2082
  C  C95  1  0.297200  0.468100  0.535800  1.0  0.1384
  C  C96  1  0.233600  0.412100  0.604200  1.0  -0.1324
  C  C97  1  0.210700  0.320800  0.605300  1.0  -0.1075
  C  C98  1  0.247200  0.285300  0.538700  1.0  -0.1034
  C  C99  1  0.309800  0.340400  0.469800  1.0  -0.1387
  C  C100  1  0.335700  0.432700  0.471400  1.0  0.0874
  C  C101  1  0.541500  0.034000  0.331700  1.0  -0.1622
  C  C102  1  0.494700  0.939900  0.330500  1.0  0.177
  C  C103  1  0.420500  0.809600  0.444200  1.0  0.2078
  C  C104  1  0.531900  0.829100  0.535800  1.0  0.1389
  C  C105  1  0.587900  0.821500  0.604200  1.0  -0.133
  C  C106  1  0.679200  0.889900  0.605300  1.0  -0.1077
  C  C107  1  0.714700  0.961900  0.538700  1.0  -0.1043
  C  C108  1  0.659600  0.969400  0.469800  1.0  -0.1355
  C  C109  1  0.567300  0.903000  0.471400  1.0  0.0872
  C  C110  1  0.492500  0.034000  0.168300  1.0  -0.1629
  C  C111  1  0.445200  0.939900  0.169500  1.0  0.1669
  C  C112  1  0.389100  0.809600  0.055800  1.0  0.2068
  C  C113  1  0.297200  0.829100  0.964200  1.0  0.1388
  C  C114  1  0.233600  0.821500  0.895800  1.0  -0.1325
  C  C115  1  0.210700  0.889900  0.894700  1.0  -0.1101
  C  C116  1  0.247200  0.961900  0.961300  1.0  -0.1064
  C  C117  1  0.309800  0.969400  0.030200  1.0  -0.1366
  C  C118  1  0.335700  0.903000  0.028600  1.0  0.0872
  C  C119  1  0.541500  0.507500  0.168300  1.0  -0.1617
  C  C120  1  0.494700  0.554800  0.169500  1.0  0.1669
  C  C121  1  0.420500  0.610900  0.055800  1.0  0.2075
  C  C122  1  0.531900  0.702800  0.964200  1.0  0.1376
  C  C123  1  0.587900  0.766400  0.895800  1.0  -0.1355
  C  C124  1  0.679200  0.789300  0.894700  1.0  -0.1088
  C  C125  1  0.714700  0.752800  0.961300  1.0  -0.1029
  C  C126  1  0.659600  0.690200  0.030200  1.0  -0.1449
  C  C127  1  0.567300  0.664300  0.028600  1.0  0.0853
  C  C128  1  0.966000  0.458500  0.168300  1.0  -0.1631
  C  C129  1  0.060100  0.505300  0.169500  1.0  0.1683
  C  C130  1  0.190400  0.579500  0.055800  1.0  0.2074
  C  C131  1  0.170900  0.468100  0.964200  1.0  0.1378
  C  C132  1  0.178500  0.412100  0.895800  1.0  -0.1345
  C  C133  1  0.110100  0.320800  0.894700  1.0  -0.108
  C  C134  1  0.038100  0.285300  0.961300  1.0  -0.1041
  C  C135  1  0.030600  0.340400  0.030200  1.0  -0.1383
  C  C136  1  0.097000  0.432700  0.028600  1.0  0.0867
  C  C137  1  0.034000  0.492500  0.668300  1.0  -0.1619
  C  C138  1  0.939900  0.445200  0.669500  1.0  0.1766
  C  C139  1  0.809600  0.389100  0.555800  1.0  0.2073
  C  C140  1  0.829100  0.297200  0.464200  1.0  0.1376
  C  C141  1  0.821500  0.233600  0.395800  1.0  -0.1351
  C  C142  1  0.889900  0.210700  0.394700  1.0  -0.1089
  C  C143  1  0.961900  0.247200  0.461300  1.0  -0.1032
  C  C144  1  0.969400  0.309800  0.530200  1.0  -0.1379
  C  C145  1  0.903000  0.335700  0.528600  1.0  0.0856
  C  C146  1  0.507500  0.541500  0.668300  1.0  -0.1635
  C  C147  1  0.554800  0.494700  0.669500  1.0  0.1781
  C  C148  1  0.610900  0.420500  0.555800  1.0  0.2076
  C  C149  1  0.702800  0.531900  0.464200  1.0  0.138
  C  C150  1  0.766400  0.587900  0.395800  1.0  -0.1349
  C  C151  1  0.789300  0.679200  0.394700  1.0  -0.1096
  C  C152  1  0.752800  0.714700  0.461300  1.0  -0.1031
  C  C153  1  0.690200  0.659600  0.530200  1.0  -0.1454
  C  C154  1  0.664300  0.567300  0.528600  1.0  0.0864
  C  C155  1  0.458500  0.966000  0.668300  1.0  -0.1629
  C  C156  1  0.505300  0.060100  0.669500  1.0  0.1768
  C  C157  1  0.579500  0.190400  0.555800  1.0  0.2071
  C  C158  1  0.468100  0.170900  0.464200  1.0  0.139
  C  C159  1  0.412100  0.178500  0.395800  1.0  -0.1329
  C  C160  1  0.320800  0.110100  0.394700  1.0  -0.1103
  C  C161  1  0.285300  0.038100  0.461300  1.0  -0.1065
  C  C162  1  0.340400  0.030600  0.530200  1.0  -0.1366
  C  C163  1  0.432700  0.097000  0.528600  1.0  0.0873
  C  C164  1  0.507500  0.966000  0.831700  1.0  -0.1617
  C  C165  1  0.554800  0.060100  0.830500  1.0  0.1669
  C  C166  1  0.610900  0.190400  0.944200  1.0  0.2079
  C  C167  1  0.702800  0.170900  0.035800  1.0  0.1389
  C  C168  1  0.766400  0.178500  0.104200  1.0  -0.1335
  C  C169  1  0.789300  0.110100  0.105300  1.0  -0.1086
  C  C170  1  0.752800  0.038100  0.038700  1.0  -0.1046
  C  C171  1  0.690200  0.030600  0.969800  1.0  -0.135
  C  C172  1  0.664300  0.097000  0.971400  1.0  0.0871
  C  C173  1  0.458500  0.492500  0.831700  1.0  -0.1616
  C  C174  1  0.505300  0.445200  0.830500  1.0  0.1674
  C  C175  1  0.579500  0.389100  0.944200  1.0  0.2078
  C  C176  1  0.468100  0.297200  0.035800  1.0  0.1378
  C  C177  1  0.412100  0.233600  0.104200  1.0  -0.1363
  C  C178  1  0.320800  0.210700  0.105300  1.0  -0.1079
  C  C179  1  0.285300  0.247200  0.038700  1.0  -0.1056
  C  C180  1  0.340400  0.309800  0.969800  1.0  -0.1378
  C  C181  1  0.432700  0.335700  0.971400  1.0  0.0873
  C  C182  1  0.034000  0.541500  0.831700  1.0  -0.1625
  C  C183  1  0.939900  0.494700  0.830500  1.0  0.1673
  C  C184  1  0.809600  0.420500  0.944200  1.0  0.2082
  C  C185  1  0.829100  0.531900  0.035800  1.0  0.1391
  C  C186  1  0.821500  0.587900  0.104200  1.0  -0.1335
  C  C187  1  0.889900  0.679200  0.105300  1.0  -0.1083
  C  C188  1  0.961900  0.714700  0.038700  1.0  -0.1004
  C  C189  1  0.969400  0.659600  0.969800  1.0  -0.1392
  C  C190  1  0.903000  0.567300  0.971400  1.0  0.0881
  C  C191  1  0.815300  0.407650  0.250000  1.0  0.6509
  C  C192  1  0.918700  0.459350  0.250000  1.0  -0.1475
  C  C193  1  0.107700  0.553850  0.250000  1.0  -0.223
  C  C194  1  0.592350  0.407650  0.250000  1.0  0.652
  C  C195  1  0.540650  0.459350  0.250000  1.0  -0.1475
  C  C196  1  0.446150  0.553850  0.250000  1.0  -0.2246
  C  C197  1  0.592350  0.184700  0.250000  1.0  0.6534
  C  C198  1  0.540650  0.081300  0.250000  1.0  -0.1459
  C  C199  1  0.446150  0.892300  0.250000  1.0  -0.2221
  C  C200  1  0.184700  0.592350  0.750000  1.0  0.6526
  C  C201  1  0.081300  0.540650  0.750000  1.0  -0.1476
  C  C202  1  0.892300  0.446150  0.750000  1.0  -0.2246
  C  C203  1  0.407650  0.592350  0.750000  1.0  0.6512
  C  C204  1  0.459350  0.540650  0.750000  1.0  -0.1478
  C  C205  1  0.553850  0.446150  0.750000  1.0  -0.2225
  C  C206  1  0.407650  0.815300  0.750000  1.0  0.6534
  C  C207  1  0.459350  0.918700  0.750000  1.0  -0.1457
  C  C208  1  0.553850  0.107700  0.750000  1.0  -0.2222
  N  N209  1  0.111200  0.605400  0.413400  1.0  -0.051
  N  N210  1  0.228100  0.667300  0.517300  1.0  -0.392
  N  N211  1  0.394600  0.505800  0.413400  1.0  -0.0531
  N  N212  1  0.332700  0.560800  0.517300  1.0  -0.3933
  N  N213  1  0.494200  0.888800  0.413400  1.0  -0.0533
  N  N214  1  0.439200  0.771900  0.517300  1.0  -0.393
  N  N215  1  0.394600  0.888800  0.086600  1.0  -0.0518
  N  N216  1  0.332700  0.771900  0.982700  1.0  -0.3917
  N  N217  1  0.494200  0.605400  0.086600  1.0  -0.0501
  N  N218  1  0.439200  0.667300  0.982700  1.0  -0.391
  N  N219  1  0.111200  0.505800  0.086600  1.0  -0.0523
  N  N220  1  0.228100  0.560800  0.982700  1.0  -0.3912
  N  N221  1  0.888800  0.394600  0.586600  1.0  -0.0499
  N  N222  1  0.771900  0.332700  0.482700  1.0  -0.3908
  N  N223  1  0.605400  0.494200  0.586600  1.0  -0.0525
  N  N224  1  0.667300  0.439200  0.482700  1.0  -0.3916
  N  N225  1  0.505800  0.111200  0.586600  1.0  -0.0519
  N  N226  1  0.560800  0.228100  0.482700  1.0  -0.3923
  N  N227  1  0.605400  0.111200  0.913400  1.0  -0.0533
  N  N228  1  0.667300  0.228100  0.017300  1.0  -0.394
  N  N229  1  0.505800  0.394600  0.913400  1.0  -0.0514
  N  N230  1  0.560800  0.332700  0.017300  1.0  -0.3917
  N  N231  1  0.888800  0.494200  0.913400  1.0  -0.0528
  N  N232  1  0.771900  0.439200  0.017300  1.0  -0.3931
  O  O233  1  0.777200  0.352900  0.181000  1.0  -0.5956
  O  O234  1  0.647100  0.424300  0.181000  1.0  -0.5959
  O  O235  1  0.575700  0.222800  0.181000  1.0  -0.5954
  O  O236  1  0.647100  0.222800  0.319000  1.0  -0.5954
  O  O237  1  0.575700  0.352900  0.319000  1.0  -0.595
  O  O238  1  0.777200  0.424300  0.319000  1.0  -0.595
  O  O239  1  0.222800  0.647100  0.819000  1.0  -0.5947
  O  O240  1  0.352900  0.575700  0.819000  1.0  -0.5951
  O  O241  1  0.424300  0.777200  0.819000  1.0  -0.5953
  O  O242  1  0.352900  0.777200  0.681000  1.0  -0.5954
  O  O243  1  0.424300  0.647100  0.681000  1.0  -0.5951
  O  O244  1  0.222800  0.575700  0.681000  1.0  -0.596
