# generated using pymatgen
data_Co2H39C63(N2O)6
_symmetry_space_group_name_H-M   'P 1'
_cell_length_a   17.08800000
_cell_length_b   17.08800000
_cell_length_c   13.89200000
_cell_angle_alpha   90.00000000
_cell_angle_beta   90.00000000
_cell_angle_gamma   120.00000000
_symmetry_Int_Tables_number   1
_chemical_formula_structural   Co2H39C63(N2O)6
_chemical_formula_sum   'Co4 H78 C126 N24 O12'
_cell_volume   3512.99779365
_cell_formula_units_Z   2
loop_
 _symmetry_equiv_pos_site_id
 _symmetry_equiv_pos_as_xyz
  1  'x, y, z'
loop_
 _atom_site_type_symbol
 _atom_site_label
 _atom_site_symmetry_multiplicity
 _atom_site_fract_x
 _atom_site_fract_y
 _atom_site_fract_z
 _atom_site_occupancy
 _atom_site_charge
  Co  Co1  1  0.666667  0.333333  0.101860  1.0  0.8656
  Co  Co2  1  0.666667  0.333333  0.398140  1.0  0.8655
  Co  Co3  1  0.333333  0.666667  0.898140  1.0  0.8655
  Co  Co4  1  0.333333  0.666667  0.601860  1.0  0.8656
  H  H5  1  0.494400  0.427900  0.386800  1.0  0.0984
  H  H6  1  0.423100  0.635100  0.414400  1.0  0.0796
  H  H7  1  0.212100  0.436000  0.645700  1.0  0.1109
  H  H8  1  0.177400  0.287600  0.652900  1.0  0.0931
  H  H9  1  0.241100  0.230200  0.547400  1.0  0.0968
  H  H10  1  0.344600  0.322100  0.432000  1.0  0.1152
  H  H11  1  0.572100  0.066500  0.386800  1.0  0.0981
  H  H12  1  0.364900  0.788000  0.414400  1.0  0.0796
  H  H13  1  0.564000  0.776100  0.645700  1.0  0.1124
  H  H14  1  0.712400  0.889800  0.652900  1.0  0.0925
  H  H15  1  0.769800  0.010900  0.547400  1.0  0.0951
  H  H16  1  0.677900  0.022500  0.432000  1.0  0.1149
  H  H17  1  0.933500  0.505600  0.386800  1.0  0.098
  H  H18  1  0.212000  0.576900  0.414400  1.0  0.0795
  H  H19  1  0.223900  0.787900  0.645700  1.0  0.1128
  H  H20  1  0.110200  0.822600  0.652900  1.0  0.0927
  H  H21  1  0.989100  0.758900  0.547400  1.0  0.0939
  H  H22  1  0.977500  0.655400  0.432000  1.0  0.1152
  H  H23  1  0.572100  0.505600  0.113200  1.0  0.0981
  H  H24  1  0.364900  0.576900  0.085600  1.0  0.0794
  H  H25  1  0.564000  0.787900  0.854300  1.0  0.113
  H  H26  1  0.712400  0.822600  0.847100  1.0  0.0927
  H  H27  1  0.769800  0.758900  0.952600  1.0  0.0943
  H  H28  1  0.677900  0.655400  0.068000  1.0  0.1155
  H  H29  1  0.933500  0.427900  0.113200  1.0  0.0975
  H  H30  1  0.212000  0.635100  0.085600  1.0  0.0799
  H  H31  1  0.223900  0.436000  0.854300  1.0  0.1106
  H  H32  1  0.110200  0.287600  0.847100  1.0  0.0923
  H  H33  1  0.989100  0.230200  0.952600  1.0  0.0961
  H  H34  1  0.977500  0.322100  0.068000  1.0  0.115
  H  H35  1  0.494400  0.066500  0.113200  1.0  0.0979
  H  H36  1  0.423100  0.788000  0.085600  1.0  0.08
  H  H37  1  0.212100  0.776100  0.854300  1.0  0.1129
  H  H38  1  0.177400  0.889800  0.847100  1.0  0.092
  H  H39  1  0.241100  0.010900  0.952600  1.0  0.0955
  H  H40  1  0.344600  0.022500  0.068000  1.0  0.1146
  H  H41  1  0.505600  0.572100  0.613200  1.0  0.0981
  H  H42  1  0.576900  0.364900  0.585600  1.0  0.0804
  H  H43  1  0.787900  0.564000  0.354300  1.0  0.1105
  H  H44  1  0.822600  0.712400  0.347100  1.0  0.0928
  H  H45  1  0.758900  0.769800  0.452600  1.0  0.0963
  H  H46  1  0.655400  0.677900  0.568000  1.0  0.1148
  H  H47  1  0.427900  0.933500  0.613200  1.0  0.098
  H  H48  1  0.635100  0.212000  0.585600  1.0  0.0796
  H  H49  1  0.436000  0.223900  0.354300  1.0  0.1129
  H  H50  1  0.287600  0.110200  0.347100  1.0  0.0916
  H  H51  1  0.230200  0.989100  0.452600  1.0  0.0953
  H  H52  1  0.322100  0.977500  0.568000  1.0  0.1145
  H  H53  1  0.066500  0.494400  0.613200  1.0  0.098
  H  H54  1  0.788000  0.423100  0.585600  1.0  0.0795
  H  H55  1  0.776100  0.212100  0.354300  1.0  0.1125
  H  H56  1  0.889800  0.177400  0.347100  1.0  0.0916
  H  H57  1  0.010900  0.241100  0.452600  1.0  0.0939
  H  H58  1  0.022500  0.344600  0.568000  1.0  0.1156
  H  H59  1  0.427900  0.494400  0.886800  1.0  0.0982
  H  H60  1  0.635100  0.423100  0.914400  1.0  0.0792
  H  H61  1  0.436000  0.212100  0.145700  1.0  0.1137
  H  H62  1  0.287600  0.177400  0.152900  1.0  0.0926
  H  H63  1  0.230200  0.241100  0.047400  1.0  0.0955
  H  H64  1  0.322100  0.344600  0.932000  1.0  0.1158
  H  H65  1  0.066500  0.572100  0.886800  1.0  0.0982
  H  H66  1  0.788000  0.364900  0.914400  1.0  0.0801
  H  H67  1  0.776100  0.564000  0.145700  1.0  0.1112
  H  H68  1  0.889800  0.712400  0.152900  1.0  0.0927
  H  H69  1  0.010900  0.769800  0.047400  1.0  0.0964
  H  H70  1  0.022500  0.677900  0.932000  1.0  0.1151
  H  H71  1  0.505600  0.933500  0.886800  1.0  0.0983
  H  H72  1  0.576900  0.212000  0.914400  1.0  0.0796
  H  H73  1  0.787900  0.223900  0.145700  1.0  0.113
  H  H74  1  0.822600  0.110200  0.152900  1.0  0.0928
  H  H75  1  0.758900  0.989100  0.047400  1.0  0.0955
  H  H76  1  0.655400  0.977500  0.932000  1.0  0.1147
  H  H77  1  0.416000  0.584000  0.250000  1.0  0.1163
  H  H78  1  0.416000  0.832000  0.250000  1.0  0.1146
  H  H79  1  0.168000  0.584000  0.250000  1.0  0.1163
  H  H80  1  0.584000  0.416000  0.750000  1.0  0.1166
  H  H81  1  0.584000  0.168000  0.750000  1.0  0.1147
  H  H82  1  0.832000  0.416000  0.750000  1.0  0.1165
  C  C83  1  0.494100  0.458800  0.331820  1.0  -0.1545
  C  C84  1  0.447400  0.504600  0.330720  1.0  0.1567
  C  C85  1  0.390600  0.578300  0.442470  1.0  0.219
  C  C86  1  0.301500  0.469600  0.534880  1.0  0.1475
  C  C87  1  0.238900  0.413900  0.603700  1.0  -0.1512
  C  C88  1  0.218400  0.325700  0.607000  1.0  -0.0976
  C  C89  1  0.257200  0.290800  0.543200  1.0  -0.0948
  C  C90  1  0.318700  0.344700  0.474500  1.0  -0.1278
  C  C91  1  0.340000  0.433900  0.471970  1.0  0.0963
  C  C92  1  0.541200  0.035300  0.331820  1.0  -0.1543
  C  C93  1  0.495400  0.942800  0.330720  1.0  0.1571
  C  C94  1  0.421700  0.812300  0.442470  1.0  0.2194
  C  C95  1  0.530400  0.831900  0.534880  1.0  0.1484
  C  C96  1  0.586100  0.825000  0.603700  1.0  -0.1508
  C  C97  1  0.674300  0.892700  0.607000  1.0  -0.0996
  C  C98  1  0.709200  0.966400  0.543200  1.0  -0.097
  C  C99  1  0.655300  0.974000  0.474500  1.0  -0.1241
  C  C100  1  0.566100  0.906100  0.471970  1.0  0.097
  C  C101  1  0.964700  0.505900  0.331820  1.0  -0.1536
  C  C102  1  0.057200  0.552600  0.330720  1.0  0.1574
  C  C103  1  0.187700  0.609400  0.442470  1.0  0.2182
  C  C104  1  0.168100  0.698500  0.534880  1.0  0.1477
  C  C105  1  0.175000  0.761100  0.603700  1.0  -0.1535
  C  C106  1  0.107300  0.781600  0.607000  1.0  -0.0995
  C  C107  1  0.033600  0.742800  0.543200  1.0  -0.0946
  C  C108  1  0.026000  0.681300  0.474500  1.0  -0.1252
  C  C109  1  0.093900  0.660000  0.471970  1.0  0.0965
  C  C110  1  0.541200  0.505900  0.168180  1.0  -0.1543
  C  C111  1  0.495400  0.552600  0.169280  1.0  0.1566
  C  C112  1  0.421700  0.609400  0.057530  1.0  0.2193
  C  C113  1  0.530400  0.698500  0.965120  1.0  0.1476
  C  C114  1  0.586100  0.761100  0.896300  1.0  -0.1532
  C  C115  1  0.674300  0.781600  0.893000  1.0  -0.0995
  C  C116  1  0.709200  0.742800  0.956800  1.0  -0.0938
  C  C117  1  0.655300  0.681300  0.025500  1.0  -0.1257
  C  C118  1  0.566100  0.660000  0.028030  1.0  0.0968
  C  C119  1  0.964700  0.458800  0.168180  1.0  -0.1558
  C  C120  1  0.057200  0.504600  0.169280  1.0  0.1577
  C  C121  1  0.187700  0.578300  0.057530  1.0  0.2184
  C  C122  1  0.168100  0.469600  0.965120  1.0  0.1471
  C  C123  1  0.175000  0.413900  0.896300  1.0  -0.1521
  C  C124  1  0.107300  0.325700  0.893000  1.0  -0.0971
  C  C125  1  0.033600  0.290800  0.956800  1.0  -0.0953
  C  C126  1  0.026000  0.344700  0.025500  1.0  -0.1276
  C  C127  1  0.093900  0.433900  0.028030  1.0  0.0971
  C  C128  1  0.494100  0.035300  0.168180  1.0  -0.1549
  C  C129  1  0.447400  0.942800  0.169280  1.0  0.1562
  C  C130  1  0.390600  0.812300  0.057530  1.0  0.2189
  C  C131  1  0.301500  0.831900  0.965120  1.0  0.1488
  C  C132  1  0.238900  0.825000  0.896300  1.0  -0.1493
  C  C133  1  0.218400  0.892700  0.893000  1.0  -0.1019
  C  C134  1  0.257200  0.966400  0.956800  1.0  -0.0984
  C  C135  1  0.318700  0.974000  0.025500  1.0  -0.1237
  C  C136  1  0.340000  0.906100  0.028030  1.0  0.0978
  C  C137  1  0.505900  0.541200  0.668180  1.0  -0.156
  C  C138  1  0.552600  0.495400  0.669280  1.0  0.1582
  C  C139  1  0.609400  0.421700  0.557530  1.0  0.219
  C  C140  1  0.698500  0.530400  0.465120  1.0  0.1473
  C  C141  1  0.761100  0.586100  0.396300  1.0  -0.153
  C  C142  1  0.781600  0.674300  0.393000  1.0  -0.0969
  C  C143  1  0.742800  0.709200  0.456800  1.0  -0.0899
  C  C144  1  0.681300  0.655300  0.525500  1.0  -0.1277
  C  C145  1  0.660000  0.566100  0.528030  1.0  0.097
  C  C146  1  0.458800  0.964700  0.668180  1.0  -0.1551
  C  C147  1  0.504600  0.057200  0.669280  1.0  0.1568
  C  C148  1  0.578300  0.187700  0.557530  1.0  0.2184
  C  C149  1  0.469600  0.168100  0.465120  1.0  0.1482
  C  C150  1  0.413900  0.175000  0.396300  1.0  -0.1487
  C  C151  1  0.325700  0.107300  0.393000  1.0  -0.1021
  C  C152  1  0.290800  0.033600  0.456800  1.0  -0.0985
  C  C153  1  0.344700  0.026000  0.525500  1.0  -0.1248
  C  C154  1  0.433900  0.093900  0.528030  1.0  0.0983
  C  C155  1  0.035300  0.494100  0.668180  1.0  -0.1543
  C  C156  1  0.942800  0.447400  0.669280  1.0  0.1571
  C  C157  1  0.812300  0.390600  0.557530  1.0  0.2188
  C  C158  1  0.831900  0.301500  0.465120  1.0  0.1476
  C  C159  1  0.825000  0.238900  0.396300  1.0  -0.1531
  C  C160  1  0.892700  0.218400  0.393000  1.0  -0.0996
  C  C161  1  0.966400  0.257200  0.456800  1.0  -0.0944
  C  C162  1  0.974000  0.318700  0.525500  1.0  -0.1257
  C  C163  1  0.906100  0.340000  0.528030  1.0  0.097
  C  C164  1  0.458800  0.494100  0.831820  1.0  -0.1536
  C  C165  1  0.504600  0.447400  0.830720  1.0  0.1571
  C  C166  1  0.578300  0.390600  0.942470  1.0  0.2184
  C  C167  1  0.469600  0.301500  0.034880  1.0  0.1476
  C  C168  1  0.413900  0.238900  0.103700  1.0  -0.1537
  C  C169  1  0.325700  0.218400  0.107000  1.0  -0.0994
  C  C170  1  0.290800  0.257200  0.043200  1.0  -0.095
  C  C171  1  0.344700  0.318700  0.974500  1.0  -0.1258
  C  C172  1  0.433900  0.340000  0.971970  1.0  0.0966
  C  C173  1  0.035300  0.541200  0.831820  1.0  -0.1547
  C  C174  1  0.942800  0.495400  0.830720  1.0  0.1562
  C  C175  1  0.812300  0.421700  0.942470  1.0  0.2188
  C  C176  1  0.831900  0.530400  0.034880  1.0  0.1482
  C  C177  1  0.825000  0.586100  0.103700  1.0  -0.1526
  C  C178  1  0.892700  0.674300  0.107000  1.0  -0.0979
  C  C179  1  0.966400  0.709200  0.043200  1.0  -0.088
  C  C180  1  0.974000  0.655300  0.974500  1.0  -0.1278
  C  C181  1  0.906100  0.566100  0.971970  1.0  0.0967
  C  C182  1  0.505900  0.964700  0.831820  1.0  -0.1541
  C  C183  1  0.552600  0.057200  0.830720  1.0  0.1569
  C  C184  1  0.609400  0.187700  0.942470  1.0  0.2188
  C  C185  1  0.698500  0.168100  0.034880  1.0  0.1475
  C  C186  1  0.761100  0.175000  0.103700  1.0  -0.1496
  C  C187  1  0.781600  0.107300  0.107000  1.0  -0.0994
  C  C188  1  0.742800  0.033600  0.043200  1.0  -0.0969
  C  C189  1  0.681300  0.026000  0.974500  1.0  -0.1254
  C  C190  1  0.660000  0.093900  0.971970  1.0  0.097
  C  C191  1  0.591940  0.408060  0.250000  1.0  0.6518
  C  C192  1  0.541220  0.458780  0.250000  1.0  -0.1567
  C  C193  1  0.447420  0.552580  0.250000  1.0  -0.2362
  C  C194  1  0.591940  0.183880  0.250000  1.0  0.654
  C  C195  1  0.541220  0.082440  0.250000  1.0  -0.1549
  C  C196  1  0.447420  0.894840  0.250000  1.0  -0.2328
  C  C197  1  0.816120  0.408060  0.250000  1.0  0.6506
  C  C198  1  0.917560  0.458780  0.250000  1.0  -0.1566
  C  C199  1  0.105160  0.552580  0.250000  1.0  -0.2344
  C  C200  1  0.408060  0.591940  0.750000  1.0  0.6509
  C  C201  1  0.458780  0.541220  0.750000  1.0  -0.1568
  C  C202  1  0.552580  0.447420  0.750000  1.0  -0.2342
  C  C203  1  0.408060  0.816120  0.750000  1.0  0.6532
  C  C204  1  0.458780  0.917560  0.750000  1.0  -0.155
  C  C205  1  0.552580  0.105160  0.750000  1.0  -0.234
  C  C206  1  0.183880  0.591940  0.750000  1.0  0.6522
  C  C207  1  0.082440  0.541220  0.750000  1.0  -0.1569
  C  C208  1  0.894840  0.447420  0.750000  1.0  -0.2361
  N  N209  1  0.397440  0.506140  0.413270  1.0  -0.0485
  N  N210  1  0.333740  0.560340  0.514290  1.0  -0.4128
  N  N211  1  0.493860  0.891300  0.413270  1.0  -0.0482
  N  N212  1  0.439660  0.773400  0.514290  1.0  -0.4132
  N  N213  1  0.108700  0.602560  0.413270  1.0  -0.0466
  N  N214  1  0.226600  0.666260  0.514290  1.0  -0.4111
  N  N215  1  0.493860  0.602560  0.086730  1.0  -0.0468
  N  N216  1  0.439660  0.666260  0.985710  1.0  -0.4111
  N  N217  1  0.108700  0.506140  0.086730  1.0  -0.0479
  N  N218  1  0.226600  0.560340  0.985710  1.0  -0.411
  N  N219  1  0.397440  0.891300  0.086730  1.0  -0.0473
  N  N220  1  0.333740  0.773400  0.985710  1.0  -0.4126
  N  N221  1  0.602560  0.493860  0.586730  1.0  -0.048
  N  N222  1  0.666260  0.439660  0.485710  1.0  -0.4112
  N  N223  1  0.506140  0.108700  0.586730  1.0  -0.0474
  N  N224  1  0.560340  0.226600  0.485710  1.0  -0.4136
  N  N225  1  0.891300  0.397440  0.586730  1.0  -0.0466
  N  N226  1  0.773400  0.333740  0.485710  1.0  -0.4105
  N  N227  1  0.506140  0.397440  0.913270  1.0  -0.0467
  N  N228  1  0.560340  0.333740  0.014290  1.0  -0.4104
  N  N229  1  0.891300  0.493860  0.913270  1.0  -0.0481
  N  N230  1  0.773400  0.439660  0.014290  1.0  -0.4124
  N  N231  1  0.602560  0.108700  0.913270  1.0  -0.0483
  N  N232  1  0.666260  0.226600  0.014290  1.0  -0.4144
  O  O233  1  0.646060  0.423890  0.181100  1.0  -0.6051
  O  O234  1  0.576110  0.222170  0.181100  1.0  -0.6047
  O  O235  1  0.777830  0.353940  0.181100  1.0  -0.604
  O  O236  1  0.576110  0.353940  0.318900  1.0  -0.6043
  O  O237  1  0.777830  0.423890  0.318900  1.0  -0.6045
  O  O238  1  0.646060  0.222170  0.318900  1.0  -0.6051
  O  O239  1  0.353940  0.576110  0.818900  1.0  -0.6048
  O  O240  1  0.423890  0.777830  0.818900  1.0  -0.6053
  O  O241  1  0.222170  0.646060  0.818900  1.0  -0.6048
  O  O242  1  0.423890  0.646060  0.681100  1.0  -0.6046
  O  O243  1  0.222170  0.576110  0.681100  1.0  -0.6052
  O  O244  1  0.353940  0.777830  0.681100  1.0  -0.6046
