# generated using pymatgen
data_Co2H39C63(N2O)6
_symmetry_space_group_name_H-M   'P 1'
_cell_length_a   16.90100000
_cell_length_b   16.90100000
_cell_length_c   14.08200000
_cell_angle_alpha   90.00000000
_cell_angle_beta   90.00000000
_cell_angle_gamma   120.00000000
_symmetry_Int_Tables_number   1
_chemical_formula_structural   Co2H39C63(N2O)6
_chemical_formula_sum   'Co4 H78 C126 N24 O12'
_cell_volume   3483.53176602
_cell_formula_units_Z   2
loop_
 _symmetry_equiv_pos_site_id
 _symmetry_equiv_pos_as_xyz
  1  'x, y, z'
loop_
 _atom_site_type_symbol
 _atom_site_label
 _atom_site_symmetry_multiplicity
 _atom_site_fract_x
 _atom_site_fract_y
 _atom_site_fract_z
 _atom_site_occupancy
 _atom_site_charge
  Co  Co1  1  0.666667  0.333333  0.103790  1.0  0.8614
  Co  Co2  1  0.666667  0.333333  0.396210  1.0  0.8617
  Co  Co3  1  0.333333  0.666667  0.896210  1.0  0.8617
  Co  Co4  1  0.333333  0.666667  0.603790  1.0  0.8614
  H  H5  1  0.935500  0.508000  0.383500  1.0  0.094
  H  H6  1  0.217000  0.581000  0.414700  1.0  0.075
  H  H7  1  0.220100  0.784100  0.649100  1.0  0.1139
  H  H8  1  0.104800  0.818600  0.656500  1.0  0.0948
  H  H9  1  0.984600  0.756000  0.548400  1.0  0.0944
  H  H10  1  0.979500  0.659000  0.427200  1.0  0.1115
  H  H11  1  0.492000  0.427500  0.383500  1.0  0.0945
  H  H12  1  0.419000  0.636000  0.414700  1.0  0.0761
  H  H13  1  0.215900  0.436000  0.649100  1.0  0.1118
  H  H14  1  0.181400  0.286200  0.656500  1.0  0.0954
  H  H15  1  0.244000  0.228600  0.548400  1.0  0.0961
  H  H16  1  0.341000  0.320500  0.427200  1.0  0.1121
  H  H17  1  0.572500  0.064500  0.383500  1.0  0.0935
  H  H18  1  0.364000  0.783000  0.414700  1.0  0.0753
  H  H19  1  0.564000  0.779900  0.649100  1.0  0.1133
  H  H20  1  0.713800  0.895200  0.656500  1.0  0.0944
  H  H21  1  0.771400  0.015400  0.548400  1.0  0.0953
  H  H22  1  0.679500  0.020500  0.427200  1.0  0.1115
  H  H23  1  0.492000  0.064500  0.116500  1.0  0.094
  H  H24  1  0.419000  0.783000  0.085300  1.0  0.0757
  H  H25  1  0.215900  0.779900  0.850900  1.0  0.1141
  H  H26  1  0.181400  0.895200  0.843500  1.0  0.0937
  H  H27  1  0.244000  0.015400  0.951600  1.0  0.0956
  H  H28  1  0.341000  0.020500  0.072800  1.0  0.1109
  H  H29  1  0.572500  0.508000  0.116500  1.0  0.0941
  H  H30  1  0.364000  0.581000  0.085300  1.0  0.0756
  H  H31  1  0.564000  0.784100  0.850900  1.0  0.1137
  H  H32  1  0.713800  0.818600  0.843500  1.0  0.094
  H  H33  1  0.771400  0.756000  0.951600  1.0  0.0945
  H  H34  1  0.679500  0.659000  0.072800  1.0  0.1119
  H  H35  1  0.935500  0.427500  0.116500  1.0  0.0939
  H  H36  1  0.217000  0.636000  0.085300  1.0  0.0765
  H  H37  1  0.220100  0.436000  0.850900  1.0  0.1116
  H  H38  1  0.104800  0.286200  0.843500  1.0  0.0945
  H  H39  1  0.984600  0.228600  0.951600  1.0  0.0958
  H  H40  1  0.979500  0.320500  0.072800  1.0  0.1125
  H  H41  1  0.064500  0.492000  0.616500  1.0  0.0941
  H  H42  1  0.783000  0.419000  0.585300  1.0  0.0758
  H  H43  1  0.779900  0.215900  0.350900  1.0  0.1133
  H  H44  1  0.895200  0.181400  0.343500  1.0  0.0935
  H  H45  1  0.015400  0.244000  0.451600  1.0  0.0942
  H  H46  1  0.020500  0.341000  0.572800  1.0  0.1126
  H  H47  1  0.508000  0.572500  0.616500  1.0  0.0941
  H  H48  1  0.581000  0.364000  0.585300  1.0  0.0769
  H  H49  1  0.784100  0.564000  0.350900  1.0  0.1119
  H  H50  1  0.818600  0.713800  0.343500  1.0  0.0951
  H  H51  1  0.756000  0.771400  0.451600  1.0  0.096
  H  H52  1  0.659000  0.679500  0.572800  1.0  0.1116
  H  H53  1  0.427500  0.935500  0.616500  1.0  0.0943
  H  H54  1  0.636000  0.217000  0.585300  1.0  0.0756
  H  H55  1  0.436000  0.220100  0.350900  1.0  0.1141
  H  H56  1  0.286200  0.104800  0.343500  1.0  0.0937
  H  H57  1  0.228600  0.984600  0.451600  1.0  0.0951
  H  H58  1  0.320500  0.979500  0.572800  1.0  0.1111
  H  H59  1  0.508000  0.935500  0.883500  1.0  0.0941
  H  H60  1  0.581000  0.217000  0.914700  1.0  0.0754
  H  H61  1  0.784100  0.220100  0.149100  1.0  0.1139
  H  H62  1  0.818600  0.104800  0.156500  1.0  0.0942
  H  H63  1  0.756000  0.984600  0.048400  1.0  0.0955
  H  H64  1  0.659000  0.979500  0.927200  1.0  0.1113
  H  H65  1  0.427500  0.492000  0.883500  1.0  0.0943
  H  H66  1  0.636000  0.419000  0.914700  1.0  0.0752
  H  H67  1  0.436000  0.215900  0.149100  1.0  0.1148
  H  H68  1  0.286200  0.181400  0.156500  1.0  0.0941
  H  H69  1  0.228600  0.244000  0.048400  1.0  0.0957
  H  H70  1  0.320500  0.341000  0.927200  1.0  0.1124
  H  H71  1  0.064500  0.572500  0.883500  1.0  0.094
  H  H72  1  0.783000  0.364000  0.914700  1.0  0.0762
  H  H73  1  0.779900  0.564000  0.149100  1.0  0.1126
  H  H74  1  0.895200  0.713800  0.156500  1.0  0.0955
  H  H75  1  0.015400  0.771400  0.048400  1.0  0.0958
  H  H76  1  0.020500  0.679500  0.927200  1.0  0.1115
  H  H77  1  0.172300  0.586150  0.250000  1.0  0.1076
  H  H78  1  0.413850  0.586150  0.250000  1.0  0.1081
  H  H79  1  0.413850  0.827700  0.250000  1.0  0.106
  H  H80  1  0.827700  0.413850  0.750000  1.0  0.108
  H  H81  1  0.586150  0.413850  0.750000  1.0  0.1078
  H  H82  1  0.586150  0.172300  0.750000  1.0  0.1068
  C  C83  1  0.967200  0.508000  0.329600  1.0  -0.1263
  C  C84  1  0.061500  0.555900  0.329300  1.0  0.1697
  C  C85  1  0.190700  0.612200  0.442900  1.0  0.2195
  C  C86  1  0.167800  0.699400  0.534500  1.0  0.1466
  C  C87  1  0.172100  0.759000  0.605800  1.0  -0.1339
  C  C88  1  0.103600  0.779200  0.609600  1.0  -0.0937
  C  C89  1  0.030700  0.741300  0.543700  1.0  -0.1106
  C  C90  1  0.026400  0.682700  0.471900  1.0  -0.1391
  C  C91  1  0.094800  0.662000  0.470700  1.0  0.0722
  C  C92  1  0.492000  0.459200  0.329600  1.0  -0.1273
  C  C93  1  0.444100  0.505600  0.329300  1.0  0.17
  C  C94  1  0.387800  0.578500  0.442900  1.0  0.22
  C  C95  1  0.300600  0.468400  0.534500  1.0  0.1466
  C  C96  1  0.241000  0.413100  0.605800  1.0  -0.1316
  C  C97  1  0.220800  0.324400  0.609600  1.0  -0.0911
  C  C98  1  0.258700  0.289400  0.543700  1.0  -0.1083
  C  C99  1  0.317300  0.343700  0.471900  1.0  -0.1391
  C  C100  1  0.338000  0.432800  0.470700  1.0  0.0715
  C  C101  1  0.540800  0.032800  0.329600  1.0  -0.1269
  C  C102  1  0.494400  0.938500  0.329300  1.0  0.1689
  C  C103  1  0.421500  0.809300  0.442900  1.0  0.221
  C  C104  1  0.531600  0.832200  0.534500  1.0  0.147
  C  C105  1  0.586900  0.827900  0.605800  1.0  -0.1311
  C  C106  1  0.675600  0.896400  0.609600  1.0  -0.0931
  C  C107  1  0.710600  0.969300  0.543700  1.0  -0.1098
  C  C108  1  0.656300  0.973600  0.471900  1.0  -0.1389
  C  C109  1  0.567200  0.905200  0.470700  1.0  0.0719
  C  C110  1  0.492000  0.032800  0.170400  1.0  -0.1279
  C  C111  1  0.444100  0.938500  0.170700  1.0  0.1696
  C  C112  1  0.387800  0.809300  0.057100  1.0  0.2198
  C  C113  1  0.300600  0.832200  0.965500  1.0  0.1469
  C  C114  1  0.241000  0.827900  0.894200  1.0  -0.1292
  C  C115  1  0.220800  0.896400  0.890400  1.0  -0.0957
  C  C116  1  0.258700  0.969300  0.956300  1.0  -0.1118
  C  C117  1  0.317300  0.973600  0.028100  1.0  -0.1387
  C  C118  1  0.338000  0.905200  0.029300  1.0  0.0732
  C  C119  1  0.540800  0.508000  0.170400  1.0  -0.1266
  C  C120  1  0.494400  0.555900  0.170700  1.0  0.17
  C  C121  1  0.421500  0.612200  0.057100  1.0  0.2207
  C  C122  1  0.531600  0.699400  0.965500  1.0  0.1464
  C  C123  1  0.586900  0.759000  0.894200  1.0  -0.1329
  C  C124  1  0.675600  0.779200  0.890400  1.0  -0.0938
  C  C125  1  0.710600  0.741300  0.956300  1.0  -0.1069
  C  C126  1  0.656300  0.682700  0.028100  1.0  -0.1382
  C  C127  1  0.567200  0.662000  0.029300  1.0  0.0718
  C  C128  1  0.967200  0.459200  0.170400  1.0  -0.1284
  C  C129  1  0.061500  0.505600  0.170700  1.0  0.171
  C  C130  1  0.190700  0.578500  0.057100  1.0  0.2196
  C  C131  1  0.167800  0.468400  0.965500  1.0  0.1462
  C  C132  1  0.172100  0.413100  0.894200  1.0  -0.1322
  C  C133  1  0.103600  0.324400  0.890400  1.0  -0.0913
  C  C134  1  0.030700  0.289400  0.956300  1.0  -0.11
  C  C135  1  0.026400  0.343700  0.028100  1.0  -0.1382
  C  C136  1  0.094800  0.432800  0.029300  1.0  0.0722
  C  C137  1  0.032800  0.492000  0.670400  1.0  -0.1267
  C  C138  1  0.938500  0.444100  0.670700  1.0  0.1698
  C  C139  1  0.809300  0.387800  0.557100  1.0  0.2206
  C  C140  1  0.832200  0.300600  0.465500  1.0  0.146
  C  C141  1  0.827900  0.241000  0.394200  1.0  -0.1331
  C  C142  1  0.896400  0.220800  0.390400  1.0  -0.0939
  C  C143  1  0.969300  0.258700  0.456300  1.0  -0.1071
  C  C144  1  0.973600  0.317300  0.528100  1.0  -0.1377
  C  C145  1  0.905200  0.338000  0.529300  1.0  0.0714
  C  C146  1  0.508000  0.540800  0.670400  1.0  -0.1286
  C  C147  1  0.555900  0.494400  0.670700  1.0  0.1711
  C  C148  1  0.612200  0.421500  0.557100  1.0  0.2202
  C  C149  1  0.699400  0.531600  0.465500  1.0  0.1462
  C  C150  1  0.759000  0.586900  0.394200  1.0  -0.1325
  C  C151  1  0.779200  0.675600  0.390400  1.0  -0.0899
  C  C152  1  0.741300  0.710600  0.456300  1.0  -0.1048
  C  C153  1  0.682700  0.656300  0.528100  1.0  -0.1392
  C  C154  1  0.662000  0.567200  0.529300  1.0  0.0725
  C  C155  1  0.459200  0.967200  0.670400  1.0  -0.128
  C  C156  1  0.505600  0.061500  0.670700  1.0  0.1699
  C  C157  1  0.578500  0.190700  0.557100  1.0  0.2197
  C  C158  1  0.468400  0.167800  0.465500  1.0  0.1467
  C  C159  1  0.413100  0.172100  0.394200  1.0  -0.1295
  C  C160  1  0.324400  0.103600  0.390400  1.0  -0.0957
  C  C161  1  0.289400  0.030700  0.456300  1.0  -0.1118
  C  C162  1  0.343700  0.026400  0.528100  1.0  -0.1385
  C  C163  1  0.432800  0.094800  0.529300  1.0  0.0736
  C  C164  1  0.508000  0.967200  0.829600  1.0  -0.1265
  C  C165  1  0.555900  0.061500  0.829300  1.0  0.1692
  C  C166  1  0.612200  0.190700  0.942900  1.0  0.2208
  C  C167  1  0.699400  0.167800  0.034500  1.0  0.1466
  C  C168  1  0.759000  0.172100  0.105800  1.0  -0.1313
  C  C169  1  0.779200  0.103600  0.109600  1.0  -0.0927
  C  C170  1  0.741300  0.030700  0.043700  1.0  -0.1103
  C  C171  1  0.682700  0.026400  0.971900  1.0  -0.1389
  C  C172  1  0.662000  0.094800  0.970700  1.0  0.0719
  C  C173  1  0.459200  0.492000  0.829600  1.0  -0.1266
  C  C174  1  0.505600  0.444100  0.829300  1.0  0.1695
  C  C175  1  0.578500  0.387800  0.942900  1.0  0.2198
  C  C176  1  0.468400  0.300600  0.034500  1.0  0.1461
  C  C177  1  0.413100  0.241000  0.105800  1.0  -0.1342
  C  C178  1  0.324400  0.220800  0.109600  1.0  -0.0933
  C  C179  1  0.289400  0.258700  0.043700  1.0  -0.1107
  C  C180  1  0.343700  0.317300  0.971900  1.0  -0.1384
  C  C181  1  0.432800  0.338000  0.970700  1.0  0.0717
  C  C182  1  0.032800  0.540800  0.829600  1.0  -0.1273
  C  C183  1  0.938500  0.494400  0.829300  1.0  0.1701
  C  C184  1  0.809300  0.421500  0.942900  1.0  0.2203
  C  C185  1  0.832200  0.531600  0.034500  1.0  0.1468
  C  C186  1  0.827900  0.586900  0.105800  1.0  -0.1321
  C  C187  1  0.896400  0.675600  0.109600  1.0  -0.0903
  C  C188  1  0.969300  0.710600  0.043700  1.0  -0.1029
  C  C189  1  0.973600  0.656300  0.971900  1.0  -0.1391
  C  C190  1  0.905200  0.567200  0.970700  1.0  0.0723
  C  C191  1  0.816900  0.408450  0.250000  1.0  0.6486
  C  C192  1  0.920000  0.460000  0.250000  1.0  -0.1576
  C  C193  1  0.108700  0.554350  0.250000  1.0  -0.2188
  C  C194  1  0.591550  0.408450  0.250000  1.0  0.6489
  C  C195  1  0.540000  0.460000  0.250000  1.0  -0.1578
  C  C196  1  0.445650  0.554350  0.250000  1.0  -0.2199
  C  C197  1  0.591550  0.183100  0.250000  1.0  0.6523
  C  C198  1  0.540000  0.080000  0.250000  1.0  -0.1562
  C  C199  1  0.445650  0.891300  0.250000  1.0  -0.2187
  C  C200  1  0.183100  0.591550  0.750000  1.0  0.6493
  C  C201  1  0.080000  0.540000  0.750000  1.0  -0.1583
  C  C202  1  0.891300  0.445650  0.750000  1.0  -0.2201
  C  C203  1  0.408450  0.591550  0.750000  1.0  0.649
  C  C204  1  0.460000  0.540000  0.750000  1.0  -0.158
  C  C205  1  0.554350  0.445650  0.750000  1.0  -0.2188
  C  C206  1  0.408450  0.816900  0.750000  1.0  0.6512
  C  C207  1  0.460000  0.920000  0.750000  1.0  -0.1561
  C  C208  1  0.554350  0.108700  0.750000  1.0  -0.2175
  N  N209  1  0.111400  0.604700  0.411600  1.0  -0.057
  N  N210  1  0.227500  0.666900  0.516000  1.0  -0.4128
  N  N211  1  0.395300  0.506700  0.411600  1.0  -0.0582
  N  N212  1  0.333100  0.560600  0.516000  1.0  -0.4127
  N  N213  1  0.493300  0.888600  0.411600  1.0  -0.0588
  N  N214  1  0.439400  0.772500  0.516000  1.0  -0.4135
  N  N215  1  0.395300  0.888600  0.088400  1.0  -0.0576
  N  N216  1  0.333100  0.772500  0.984000  1.0  -0.4128
  N  N217  1  0.493300  0.604700  0.088400  1.0  -0.0566
  N  N218  1  0.439400  0.666900  0.984000  1.0  -0.412
  N  N219  1  0.111400  0.506700  0.088400  1.0  -0.0575
  N  N220  1  0.227500  0.560600  0.984000  1.0  -0.4109
  N  N221  1  0.888600  0.395300  0.588400  1.0  -0.0566
  N  N222  1  0.772500  0.333100  0.484000  1.0  -0.4117
  N  N223  1  0.604700  0.493300  0.588400  1.0  -0.0578
  N  N224  1  0.666900  0.439400  0.484000  1.0  -0.4116
  N  N225  1  0.506700  0.111400  0.588400  1.0  -0.0574
  N  N226  1  0.560600  0.227500  0.484000  1.0  -0.414
  N  N227  1  0.604700  0.111400  0.911600  1.0  -0.0587
  N  N228  1  0.666900  0.227500  0.016000  1.0  -0.4154
  N  N229  1  0.506700  0.395300  0.911600  1.0  -0.0573
  N  N230  1  0.560600  0.333100  0.016000  1.0  -0.4121
  N  N231  1  0.888600  0.493300  0.911600  1.0  -0.0582
  N  N232  1  0.772500  0.439400  0.016000  1.0  -0.4129
  O  O233  1  0.779000  0.354500  0.181600  1.0  -0.6009
  O  O234  1  0.645500  0.424500  0.181600  1.0  -0.602
  O  O235  1  0.575500  0.221000  0.181600  1.0  -0.6021
  O  O236  1  0.645500  0.221000  0.318400  1.0  -0.6019
  O  O237  1  0.575500  0.354500  0.318400  1.0  -0.6014
  O  O238  1  0.779000  0.424500  0.318400  1.0  -0.6016
  O  O239  1  0.221000  0.645500  0.818400  1.0  -0.6004
  O  O240  1  0.354500  0.575500  0.818400  1.0  -0.6007
  O  O241  1  0.424500  0.779000  0.818400  1.0  -0.601
  O  O242  1  0.354500  0.779000  0.681600  1.0  -0.6009
  O  O243  1  0.424500  0.645500  0.681600  1.0  -0.6001
  O  O244  1  0.221000  0.575500  0.681600  1.0  -0.6014
