# generated using pymatgen
data_Mn2H39C63(N2O)6
_symmetry_space_group_name_H-M   'P 1'
_cell_length_a   17.10700000
_cell_length_b   17.10700000
_cell_length_c   14.13300000
_cell_angle_alpha   90.00000000
_cell_angle_beta   90.00000000
_cell_angle_gamma   120.00000000
_symmetry_Int_Tables_number   1
_chemical_formula_structural   Mn2H39C63(N2O)6
_chemical_formula_sum   'Mn4 H78 C126 N24 O12'
_cell_volume   3581.89376834
_cell_formula_units_Z   2
loop_
 _symmetry_equiv_pos_site_id
 _symmetry_equiv_pos_as_xyz
  1  'x, y, z'
loop_
 _atom_site_type_symbol
 _atom_site_label
 _atom_site_symmetry_multiplicity
 _atom_site_fract_x
 _atom_site_fract_y
 _atom_site_fract_z
 _atom_site_occupancy
 _atom_site_charge
  Mn  Mn1  1  0.666667  0.333333  0.106750  1.0  0.9665
  Mn  Mn2  1  0.666667  0.333333  0.393250  1.0  0.9666
  Mn  Mn3  1  0.333333  0.666667  0.893250  1.0  0.9666
  Mn  Mn4  1  0.333333  0.666667  0.606750  1.0  0.9665
  H  H5  1  0.938300  0.424700  0.382100  1.0  0.1091
  H  H6  1  0.211000  0.633600  0.417900  1.0  0.0806
  H  H7  1  0.992100  0.314700  0.410200  1.0  0.1125
  H  H8  1  0.011500  0.219500  0.511100  1.0  0.0956
  H  H9  1  0.124000  0.276100  0.625800  1.0  0.0945
  H  H10  1  0.228100  0.429400  0.632700  1.0  0.1001
  H  H11  1  0.575300  0.513600  0.382100  1.0  0.1088
  H  H12  1  0.366400  0.577400  0.417900  1.0  0.0801
  H  H13  1  0.685300  0.677400  0.410200  1.0  0.1122
  H  H14  1  0.780500  0.792000  0.511100  1.0  0.096
  H  H15  1  0.723900  0.847900  0.625800  1.0  0.0928
  H  H16  1  0.570600  0.798700  0.632700  1.0  0.0994
  H  H17  1  0.486400  0.061700  0.382100  1.0  0.1091
  H  H18  1  0.422600  0.789000  0.417900  1.0  0.0801
  H  H19  1  0.322600  0.007900  0.410200  1.0  0.1132
  H  H20  1  0.208000  0.988500  0.511100  1.0  0.0953
  H  H21  1  0.152100  0.876000  0.625800  1.0  0.0931
  H  H22  1  0.201300  0.771900  0.632700  1.0  0.1001
  H  H23  1  0.575300  0.061700  0.117900  1.0  0.1081
  H  H24  1  0.366400  0.789000  0.082100  1.0  0.0804
  H  H25  1  0.685300  0.007900  0.089800  1.0  0.1131
  H  H26  1  0.780500  0.988500  0.988900  1.0  0.0952
  H  H27  1  0.723900  0.876000  0.874200  1.0  0.0932
  H  H28  1  0.570600  0.771900  0.867300  1.0  0.0999
  H  H29  1  0.486400  0.424700  0.117900  1.0  0.1081
  H  H30  1  0.422600  0.633600  0.082100  1.0  0.0807
  H  H31  1  0.322600  0.314700  0.089800  1.0  0.1128
  H  H32  1  0.208000  0.219500  0.988900  1.0  0.0956
  H  H33  1  0.152100  0.276100  0.874200  1.0  0.0936
  H  H34  1  0.201300  0.429400  0.867300  1.0  0.0994
  H  H35  1  0.938300  0.513600  0.117900  1.0  0.1085
  H  H36  1  0.211000  0.577400  0.082100  1.0  0.0803
  H  H37  1  0.992100  0.677400  0.089800  1.0  0.1125
  H  H38  1  0.011500  0.792000  0.988900  1.0  0.0952
  H  H39  1  0.124000  0.847900  0.874200  1.0  0.0919
  H  H40  1  0.228100  0.798700  0.867300  1.0  0.1002
  H  H41  1  0.061700  0.575300  0.617900  1.0  0.1079
  H  H42  1  0.789000  0.366400  0.582100  1.0  0.0813
  H  H43  1  0.007900  0.685300  0.589800  1.0  0.1126
  H  H44  1  0.988500  0.780500  0.488900  1.0  0.0954
  H  H45  1  0.876000  0.723900  0.374200  1.0  0.094
  H  H46  1  0.771900  0.570600  0.367300  1.0  0.0994
  H  H47  1  0.424700  0.486400  0.617900  1.0  0.1084
  H  H48  1  0.633600  0.422600  0.582100  1.0  0.08
  H  H49  1  0.314700  0.322600  0.589800  1.0  0.1122
  H  H50  1  0.219500  0.208000  0.488900  1.0  0.0956
  H  H51  1  0.276100  0.152100  0.374200  1.0  0.0917
  H  H52  1  0.429400  0.201300  0.367300  1.0  0.1
  H  H53  1  0.513600  0.938300  0.617900  1.0  0.1083
  H  H54  1  0.577400  0.211000  0.582100  1.0  0.0802
  H  H55  1  0.677400  0.992100  0.589800  1.0  0.113
  H  H56  1  0.792000  0.011500  0.488900  1.0  0.0954
  H  H57  1  0.847900  0.124000  0.374200  1.0  0.0929
  H  H58  1  0.798700  0.228100  0.367300  1.0  0.0995
  H  H59  1  0.424700  0.938300  0.882100  1.0  0.1092
  H  H60  1  0.633600  0.211000  0.917900  1.0  0.0801
  H  H61  1  0.314700  0.992100  0.910200  1.0  0.1126
  H  H62  1  0.219500  0.011500  0.011100  1.0  0.0959
  H  H63  1  0.276100  0.124000  0.125800  1.0  0.0926
  H  H64  1  0.429400  0.228100  0.132700  1.0  0.0996
  H  H65  1  0.513600  0.575300  0.882100  1.0  0.1087
  H  H66  1  0.577400  0.366400  0.917900  1.0  0.0816
  H  H67  1  0.677400  0.685300  0.910200  1.0  0.1127
  H  H68  1  0.792000  0.780500  0.011100  1.0  0.0948
  H  H69  1  0.847900  0.723900  0.125800  1.0  0.0942
  H  H70  1  0.798700  0.570600  0.132700  1.0  0.0997
  H  H71  1  0.061700  0.486400  0.882100  1.0  0.1091
  H  H72  1  0.789000  0.422600  0.917900  1.0  0.0799
  H  H73  1  0.007900  0.322600  0.910200  1.0  0.1121
  H  H74  1  0.988500  0.208000  0.011100  1.0  0.0961
  H  H75  1  0.876000  0.152100  0.125800  1.0  0.0929
  H  H76  1  0.771900  0.201300  0.132700  1.0  0.0993
  H  H77  1  0.172700  0.586350  0.250000  1.0  0.1159
  H  H78  1  0.413650  0.586350  0.250000  1.0  0.1159
  H  H79  1  0.413650  0.827300  0.250000  1.0  0.1149
  H  H80  1  0.827300  0.413650  0.750000  1.0  0.1159
  H  H81  1  0.586350  0.413650  0.750000  1.0  0.116
  H  H82  1  0.586350  0.172700  0.750000  1.0  0.1145
  C  C83  1  0.969600  0.457900  0.329200  1.0  -0.1499
  C  C84  1  0.062400  0.504200  0.327700  1.0  0.1697
  C  C85  1  0.188200  0.575700  0.442100  1.0  0.2237
  C  C86  1  0.100200  0.428900  0.460600  1.0  0.0497
  C  C87  1  0.039000  0.337300  0.454000  1.0  -0.1735
  C  C88  1  0.050500  0.281500  0.515000  1.0  -0.1118
  C  C89  1  0.119800  0.315500  0.583600  1.0  -0.1205
  C  C90  1  0.181500  0.407000  0.588600  1.0  -0.0961
  C  C91  1  0.172300  0.464300  0.526300  1.0  0.1275
  C  C92  1  0.542100  0.511700  0.329200  1.0  -0.1485
  C  C93  1  0.495800  0.558200  0.327700  1.0  0.1689
  C  C94  1  0.424300  0.612500  0.442100  1.0  0.2246
  C  C95  1  0.571100  0.671300  0.460600  1.0  0.0491
  C  C96  1  0.662700  0.701700  0.454000  1.0  -0.1733
  C  C97  1  0.718500  0.769000  0.515000  1.0  -0.1123
  C  C98  1  0.684500  0.804300  0.583600  1.0  -0.1204
  C  C99  1  0.593000  0.774500  0.588600  1.0  -0.0954
  C  C100  1  0.535700  0.708000  0.526300  1.0  0.1273
  C  C101  1  0.488300  0.030400  0.329200  1.0  -0.149
  C  C102  1  0.441800  0.937600  0.327700  1.0  0.1699
  C  C103  1  0.387500  0.811800  0.442100  1.0  0.2243
  C  C104  1  0.328700  0.899800  0.460600  1.0  0.0503
  C  C105  1  0.298300  0.961000  0.454000  1.0  -0.1685
  C  C106  1  0.231000  0.949500  0.515000  1.0  -0.1123
  C  C107  1  0.195700  0.880200  0.583600  1.0  -0.1213
  C  C108  1  0.225500  0.818500  0.588600  1.0  -0.0955
  C  C109  1  0.292000  0.827700  0.526300  1.0  0.128
  C  C110  1  0.542100  0.030400  0.170800  1.0  -0.1496
  C  C111  1  0.495800  0.937600  0.172300  1.0  0.1704
  C  C112  1  0.424300  0.811800  0.057900  1.0  0.224
  C  C113  1  0.571100  0.899800  0.039400  1.0  0.0509
  C  C114  1  0.662700  0.961000  0.046000  1.0  -0.169
  C  C115  1  0.718500  0.949500  0.985000  1.0  -0.1113
  C  C116  1  0.684500  0.880200  0.916400  1.0  -0.1182
  C  C117  1  0.593000  0.818500  0.911400  1.0  -0.0961
  C  C118  1  0.535700  0.827700  0.973700  1.0  0.1276
  C  C119  1  0.488300  0.457900  0.170800  1.0  -0.1507
  C  C120  1  0.441800  0.504200  0.172300  1.0  0.1696
  C  C121  1  0.387500  0.575700  0.057900  1.0  0.2239
  C  C122  1  0.328700  0.428900  0.039400  1.0  0.0503
  C  C123  1  0.298300  0.337300  0.046000  1.0  -0.1735
  C  C124  1  0.231000  0.281500  0.985000  1.0  -0.111
  C  C125  1  0.195700  0.315500  0.916400  1.0  -0.1201
  C  C126  1  0.225500  0.407000  0.911400  1.0  -0.0959
  C  C127  1  0.292000  0.464300  0.973700  1.0  0.1282
  C  C128  1  0.969600  0.511700  0.170800  1.0  -0.1489
  C  C129  1  0.062400  0.558200  0.172300  1.0  0.1698
  C  C130  1  0.188200  0.612500  0.057900  1.0  0.2249
  C  C131  1  0.100200  0.671300  0.039400  1.0  0.0499
  C  C132  1  0.039000  0.701700  0.046000  1.0  -0.175
  C  C133  1  0.050500  0.769000  0.985000  1.0  -0.1154
  C  C134  1  0.119800  0.804300  0.916400  1.0  -0.1198
  C  C135  1  0.181500  0.774500  0.911400  1.0  -0.0956
  C  C136  1  0.172300  0.708000  0.973700  1.0  0.128
  C  C137  1  0.030400  0.542100  0.670800  1.0  -0.1506
  C  C138  1  0.937600  0.495800  0.672300  1.0  0.1695
  C  C139  1  0.811800  0.424300  0.557900  1.0  0.2244
  C  C140  1  0.899800  0.571100  0.539400  1.0  0.0499
  C  C141  1  0.961000  0.662700  0.546000  1.0  -0.1741
  C  C142  1  0.949500  0.718500  0.485000  1.0  -0.1093
  C  C143  1  0.880200  0.684500  0.416400  1.0  -0.1185
  C  C144  1  0.818500  0.593000  0.411400  1.0  -0.0962
  C  C145  1  0.827700  0.535700  0.473700  1.0  0.1278
  C  C146  1  0.457900  0.488300  0.670800  1.0  -0.1488
  C  C147  1  0.504200  0.441800  0.672300  1.0  0.1699
  C  C148  1  0.575700  0.387500  0.557900  1.0  0.2243
  C  C149  1  0.428900  0.328700  0.539400  1.0  0.0496
  C  C150  1  0.337300  0.298300  0.546000  1.0  -0.1731
  C  C151  1  0.281500  0.231000  0.485000  1.0  -0.1157
  C  C152  1  0.315500  0.195700  0.416400  1.0  -0.1193
  C  C153  1  0.407000  0.225500  0.411400  1.0  -0.0956
  C  C154  1  0.464300  0.292000  0.473700  1.0  0.1276
  C  C155  1  0.511700  0.969600  0.670800  1.0  -0.1498
  C  C156  1  0.558200  0.062400  0.672300  1.0  0.1701
  C  C157  1  0.612500  0.188200  0.557900  1.0  0.2234
  C  C158  1  0.671300  0.100200  0.539400  1.0  0.0512
  C  C159  1  0.701700  0.039000  0.546000  1.0  -0.17
  C  C160  1  0.769000  0.050500  0.485000  1.0  -0.1117
  C  C161  1  0.804300  0.119800  0.416400  1.0  -0.1183
  C  C162  1  0.774500  0.181500  0.411400  1.0  -0.0955
  C  C163  1  0.708000  0.172300  0.473700  1.0  0.1277
  C  C164  1  0.457900  0.969600  0.829200  1.0  -0.149
  C  C165  1  0.504200  0.062400  0.827700  1.0  0.1697
  C  C166  1  0.575700  0.188200  0.942100  1.0  0.2245
  C  C167  1  0.428900  0.100200  0.960600  1.0  0.0502
  C  C168  1  0.337300  0.039000  0.954000  1.0  -0.1678
  C  C169  1  0.281500  0.050500  0.015000  1.0  -0.1124
  C  C170  1  0.315500  0.119800  0.083600  1.0  -0.1205
  C  C171  1  0.407000  0.181500  0.088600  1.0  -0.0948
  C  C172  1  0.464300  0.172300  0.026300  1.0  0.1283
  C  C173  1  0.511700  0.542100  0.829200  1.0  -0.15
  C  C174  1  0.558200  0.495800  0.827700  1.0  0.1699
  C  C175  1  0.612500  0.424300  0.942100  1.0  0.2242
  C  C176  1  0.671300  0.571100  0.960600  1.0  0.0494
  C  C177  1  0.701700  0.662700  0.954000  1.0  -0.1739
  C  C178  1  0.769000  0.718500  0.015000  1.0  -0.1106
  C  C179  1  0.804300  0.684500  0.083600  1.0  -0.1198
  C  C180  1  0.774500  0.593000  0.088600  1.0  -0.0968
  C  C181  1  0.708000  0.535700  0.026300  1.0  0.1275
  C  C182  1  0.030400  0.488300  0.829200  1.0  -0.1483
  C  C183  1  0.937600  0.441800  0.827700  1.0  0.169
  C  C184  1  0.811800  0.387500  0.942100  1.0  0.2238
  C  C185  1  0.899800  0.328700  0.960600  1.0  0.0489
  C  C186  1  0.961000  0.298300  0.954000  1.0  -0.1724
  C  C187  1  0.949500  0.231000  0.015000  1.0  -0.1127
  C  C188  1  0.880200  0.195700  0.083600  1.0  -0.1198
  C  C189  1  0.818500  0.225500  0.088600  1.0  -0.0954
  C  C190  1  0.827700  0.292000  0.026300  1.0  0.1267
  C  C191  1  0.821200  0.410600  0.250000  1.0  0.6612
  C  C192  1  0.923600  0.461800  0.250000  1.0  -0.1509
  C  C193  1  0.110000  0.555000  0.250000  1.0  -0.2368
  C  C194  1  0.589400  0.410600  0.250000  1.0  0.6622
  C  C195  1  0.538200  0.461800  0.250000  1.0  -0.151
  C  C196  1  0.445000  0.555000  0.250000  1.0  -0.2381
  C  C197  1  0.589400  0.178800  0.250000  1.0  0.6649
  C  C198  1  0.538200  0.076400  0.250000  1.0  -0.148
  C  C199  1  0.445000  0.890000  0.250000  1.0  -0.2358
  C  C200  1  0.178800  0.589400  0.750000  1.0  0.6631
  C  C201  1  0.076400  0.538200  0.750000  1.0  -0.1509
  C  C202  1  0.890000  0.445000  0.750000  1.0  -0.2384
  C  C203  1  0.410600  0.589400  0.750000  1.0  0.6617
  C  C204  1  0.461800  0.538200  0.750000  1.0  -0.1509
  C  C205  1  0.555000  0.445000  0.750000  1.0  -0.2371
  C  C206  1  0.410600  0.821200  0.750000  1.0  0.665
  C  C207  1  0.461800  0.923600  0.750000  1.0  -0.1486
  C  C208  1  0.555000  0.110000  0.750000  1.0  -0.2363
  N  N209  1  0.112500  0.503100  0.408000  1.0  -0.0465
  N  N210  1  0.226000  0.556900  0.511900  1.0  -0.3736
  N  N211  1  0.496900  0.609400  0.408000  1.0  -0.0446
  N  N212  1  0.443100  0.669100  0.511900  1.0  -0.3728
  N  N213  1  0.390600  0.887500  0.408000  1.0  -0.0469
  N  N214  1  0.330900  0.774000  0.511900  1.0  -0.3721
  N  N215  1  0.496900  0.887500  0.092000  1.0  -0.0468
  N  N216  1  0.443100  0.774000  0.988100  1.0  -0.3721
  N  N217  1  0.390600  0.503100  0.092000  1.0  -0.0471
  N  N218  1  0.330900  0.556900  0.988100  1.0  -0.3732
  N  N219  1  0.112500  0.609400  0.092000  1.0  -0.0461
  N  N220  1  0.226000  0.669100  0.988100  1.0  -0.3728
  N  N221  1  0.887500  0.496900  0.592000  1.0  -0.0474
  N  N222  1  0.774000  0.443100  0.488100  1.0  -0.3732
  N  N223  1  0.503100  0.390600  0.592000  1.0  -0.0457
  N  N224  1  0.556900  0.330900  0.488100  1.0  -0.3727
  N  N225  1  0.609400  0.112500  0.592000  1.0  -0.0471
  N  N226  1  0.669100  0.226000  0.488100  1.0  -0.3731
  N  N227  1  0.503100  0.112500  0.908000  1.0  -0.0472
  N  N228  1  0.556900  0.226000  0.011900  1.0  -0.3732
  N  N229  1  0.609400  0.496900  0.908000  1.0  -0.047
  N  N230  1  0.669100  0.443100  0.011900  1.0  -0.3735
  N  N231  1  0.887500  0.390600  0.908000  1.0  -0.0442
  N  N232  1  0.774000  0.330900  0.011900  1.0  -0.3728
  O  O233  1  0.783400  0.426900  0.182800  1.0  -0.6105
  O  O234  1  0.573100  0.356500  0.182800  1.0  -0.6115
  O  O235  1  0.643500  0.216600  0.182800  1.0  -0.6113
  O  O236  1  0.573100  0.216600  0.317200  1.0  -0.6112
  O  O237  1  0.643500  0.426900  0.317200  1.0  -0.6106
  O  O238  1  0.783400  0.356500  0.317200  1.0  -0.6108
  O  O239  1  0.216600  0.573100  0.817200  1.0  -0.6105
  O  O240  1  0.426900  0.643500  0.817200  1.0  -0.6111
  O  O241  1  0.356500  0.783400  0.817200  1.0  -0.6114
  O  O242  1  0.426900  0.783400  0.682800  1.0  -0.6113
  O  O243  1  0.356500  0.573100  0.682800  1.0  -0.6104
  O  O244  1  0.216600  0.643500  0.682800  1.0  -0.6117
