# generated using pymatgen
data_Mn2H39C63(N2O)6
_symmetry_space_group_name_H-M   'P 1'
_cell_length_a   17.96600000
_cell_length_b   27.98900000
_cell_length_c   14.14100000
_cell_angle_alpha   90.00000000
_cell_angle_beta   92.38100000
_cell_angle_gamma   90.00000000
_symmetry_Int_Tables_number   1
_chemical_formula_structural   Mn2H39C63(N2O)6
_chemical_formula_sum   'Mn8 H156 C252 N48 O24'
_cell_volume   7104.66810627
_cell_formula_units_Z   4
loop_
 _symmetry_equiv_pos_site_id
 _symmetry_equiv_pos_as_xyz
  1  'x, y, z'
loop_
 _atom_site_type_symbol
 _atom_site_label
 _atom_site_symmetry_multiplicity
 _atom_site_fract_x
 _atom_site_fract_y
 _atom_site_fract_z
 _atom_site_occupancy
 _atom_site_charge
  Mn  Mn1  1  0.004140  0.178250  0.106810  1.0  1.0282
  Mn  Mn2  1  0.504140  0.678250  0.106810  1.0  1.0282
  Mn  Mn3  1  0.995860  0.178250  0.393190  1.0  1.0283
  Mn  Mn4  1  0.495860  0.678250  0.393190  1.0  1.0283
  Mn  Mn5  1  0.995860  0.821750  0.893190  1.0  1.0284
  Mn  Mn6  1  0.495860  0.321750  0.893190  1.0  1.0284
  Mn  Mn7  1  0.004140  0.821750  0.606810  1.0  1.0285
  Mn  Mn8  1  0.504140  0.321750  0.606810  1.0  1.0285
  H  H9  1  0.040200  0.034000  0.118900  1.0  0.0932
  H  H10  1  0.769200  0.209800  0.115000  1.0  0.1125
  H  H11  1  0.817000  0.259300  0.378100  1.0  0.1021
  H  H12  1  0.612200  0.276600  0.258500  1.0  0.1179
  H  H13  1  0.972500  0.887200  0.086100  1.0  0.083
  H  H14  1  0.593200  0.306200  0.087700  1.0  0.0764
  H  H15  1  0.581600  0.273600  0.423400  1.0  0.0857
  H  H16  1  0.165000  0.007800  0.085800  1.0  0.1065
  H  H17  1  0.663700  0.139700  0.095000  1.0  0.115
  H  H18  1  0.830100  0.339900  0.416100  1.0  0.1117
  H  H19  1  0.163300  0.883800  0.862100  1.0  0.1078
  H  H20  1  0.256400  0.002700  0.976600  1.0  0.091
  H  H21  1  0.603700  0.087600  0.989200  1.0  0.094
  H  H22  1  0.483700  0.195000  0.868900  1.0  0.1078
  H  H23  1  0.862500  0.401800  0.517500  1.0  0.0908
  H  H24  1  0.664100  0.394500  0.640200  1.0  0.1074
  H  H25  1  0.254600  0.942400  0.865100  1.0  0.0933
  H  H26  1  0.514700  0.114500  0.878000  1.0  0.0953
  H  H27  1  0.782000  0.427800  0.629700  1.0  0.0921
  H  H28  1  0.540200  0.534000  0.118900  1.0  0.0932
  H  H29  1  0.269200  0.709800  0.115000  1.0  0.1125
  H  H30  1  0.317000  0.759300  0.378100  1.0  0.1021
  H  H31  1  0.112200  0.776600  0.258500  1.0  0.1179
  H  H32  1  0.472500  0.387200  0.086100  1.0  0.083
  H  H33  1  0.093200  0.806200  0.087700  1.0  0.0764
  H  H34  1  0.081600  0.773600  0.423400  1.0  0.0857
  H  H35  1  0.665000  0.507800  0.085800  1.0  0.1065
  H  H36  1  0.163700  0.639700  0.095000  1.0  0.115
  H  H37  1  0.330100  0.839900  0.416100  1.0  0.1117
  H  H38  1  0.663300  0.383800  0.862100  1.0  0.1078
  H  H39  1  0.756400  0.502700  0.976600  1.0  0.091
  H  H40  1  0.103700  0.587600  0.989200  1.0  0.094
  H  H41  1  0.983700  0.695000  0.868900  1.0  0.1078
  H  H42  1  0.362500  0.901800  0.517500  1.0  0.0908
  H  H43  1  0.164100  0.894500  0.640200  1.0  0.1074
  H  H44  1  0.754600  0.442400  0.865100  1.0  0.0933
  H  H45  1  0.014700  0.614500  0.878000  1.0  0.0953
  H  H46  1  0.282000  0.927800  0.629700  1.0  0.0921
  H  H47  1  0.959800  0.034000  0.381100  1.0  0.094
  H  H48  1  0.230800  0.209800  0.385000  1.0  0.1124
  H  H49  1  0.183000  0.259300  0.121900  1.0  0.1011
  H  H50  1  0.387800  0.276600  0.241500  1.0  0.1179
  H  H51  1  0.027500  0.887200  0.413900  1.0  0.0829
  H  H52  1  0.406800  0.306200  0.412300  1.0  0.0773
  H  H53  1  0.418400  0.273600  0.076600  1.0  0.0853
  H  H54  1  0.835000  0.007800  0.414200  1.0  0.1069
  H  H55  1  0.336300  0.139700  0.405000  1.0  0.1143
  H  H56  1  0.169900  0.339900  0.083900  1.0  0.1112
  H  H57  1  0.836700  0.883800  0.637900  1.0  0.108
  H  H58  1  0.743600  0.002700  0.523400  1.0  0.0882
  H  H59  1  0.396300  0.087600  0.510800  1.0  0.0965
  H  H60  1  0.516300  0.195000  0.631100  1.0  0.1085
  H  H61  1  0.137500  0.401800  0.982500  1.0  0.0905
  H  H62  1  0.335900  0.394500  0.859800  1.0  0.1071
  H  H63  1  0.745400  0.942400  0.634900  1.0  0.0946
  H  H64  1  0.485300  0.114500  0.622000  1.0  0.096
  H  H65  1  0.218000  0.427800  0.870300  1.0  0.0942
  H  H66  1  0.459800  0.534000  0.381100  1.0  0.094
  H  H67  1  0.730800  0.709800  0.385000  1.0  0.1124
  H  H68  1  0.683000  0.759300  0.121900  1.0  0.1011
  H  H69  1  0.887800  0.776600  0.241500  1.0  0.1179
  H  H70  1  0.527500  0.387200  0.413900  1.0  0.0829
  H  H71  1  0.906800  0.806200  0.412300  1.0  0.0773
  H  H72  1  0.918400  0.773600  0.076600  1.0  0.0853
  H  H73  1  0.335000  0.507800  0.414200  1.0  0.1069
  H  H74  1  0.836300  0.639700  0.405000  1.0  0.1143
  H  H75  1  0.669900  0.839900  0.083900  1.0  0.1112
  H  H76  1  0.336700  0.383800  0.637900  1.0  0.108
  H  H77  1  0.243600  0.502700  0.523400  1.0  0.0882
  H  H78  1  0.896300  0.587600  0.510800  1.0  0.0965
  H  H79  1  0.016300  0.695000  0.631100  1.0  0.1085
  H  H80  1  0.637500  0.901800  0.982500  1.0  0.0905
  H  H81  1  0.835900  0.894500  0.859800  1.0  0.1071
  H  H82  1  0.245400  0.442400  0.634900  1.0  0.0946
  H  H83  1  0.985300  0.614500  0.622000  1.0  0.096
  H  H84  1  0.718000  0.927800  0.870300  1.0  0.0942
  H  H85  1  0.959800  0.966000  0.881100  1.0  0.0945
  H  H86  1  0.230800  0.790200  0.885000  1.0  0.1125
  H  H87  1  0.183000  0.740700  0.621900  1.0  0.1006
  H  H88  1  0.387800  0.723400  0.741500  1.0  0.1177
  H  H89  1  0.027500  0.112800  0.913900  1.0  0.0829
  H  H90  1  0.406800  0.693800  0.912300  1.0  0.0769
  H  H91  1  0.418400  0.726400  0.576600  1.0  0.0849
  H  H92  1  0.835000  0.992200  0.914200  1.0  0.1068
  H  H93  1  0.336300  0.860300  0.905000  1.0  0.1145
  H  H94  1  0.169900  0.660100  0.583900  1.0  0.1126
  H  H95  1  0.836700  0.116200  0.137900  1.0  0.1078
  H  H96  1  0.743600  0.997300  0.023400  1.0  0.0889
  H  H97  1  0.396300  0.912400  0.010800  1.0  0.0962
  H  H98  1  0.516300  0.805000  0.131100  1.0  0.108
  H  H99  1  0.137500  0.598200  0.482500  1.0  0.0931
  H  H100  1  0.335900  0.605500  0.359800  1.0  0.107
  H  H101  1  0.745400  0.057600  0.134900  1.0  0.095
  H  H102  1  0.485300  0.885500  0.122000  1.0  0.096
  H  H103  1  0.218000  0.572200  0.370300  1.0  0.0936
  H  H104  1  0.459800  0.466000  0.881100  1.0  0.0945
  H  H105  1  0.730800  0.290200  0.885000  1.0  0.1125
  H  H106  1  0.683000  0.240700  0.621900  1.0  0.1006
  H  H107  1  0.887800  0.223400  0.741500  1.0  0.1177
  H  H108  1  0.527500  0.612800  0.913900  1.0  0.0829
  H  H109  1  0.906800  0.193800  0.912300  1.0  0.0769
  H  H110  1  0.918400  0.226400  0.576600  1.0  0.0849
  H  H111  1  0.335000  0.492200  0.914200  1.0  0.1068
  H  H112  1  0.836300  0.360300  0.905000  1.0  0.1145
  H  H113  1  0.669900  0.160100  0.583900  1.0  0.1126
  H  H114  1  0.336700  0.616200  0.137900  1.0  0.1078
  H  H115  1  0.243600  0.497300  0.023400  1.0  0.0889
  H  H116  1  0.896300  0.412400  0.010800  1.0  0.0962
  H  H117  1  0.016300  0.305000  0.131100  1.0  0.108
  H  H118  1  0.637500  0.098200  0.482500  1.0  0.0931
  H  H119  1  0.835900  0.105500  0.359800  1.0  0.107
  H  H120  1  0.245400  0.557600  0.134900  1.0  0.095
  H  H121  1  0.985300  0.385500  0.122000  1.0  0.096
  H  H122  1  0.718000  0.072200  0.370300  1.0  0.0936
  H  H123  1  0.040200  0.966000  0.618900  1.0  0.0938
  H  H124  1  0.769200  0.790200  0.615000  1.0  0.1125
  H  H125  1  0.817000  0.740700  0.878100  1.0  0.1019
  H  H126  1  0.612200  0.723400  0.758500  1.0  0.1179
  H  H127  1  0.972500  0.112800  0.586100  1.0  0.083
  H  H128  1  0.593200  0.693800  0.587700  1.0  0.0763
  H  H129  1  0.581600  0.726400  0.923400  1.0  0.0855
  H  H130  1  0.165000  0.992200  0.585800  1.0  0.1071
  H  H131  1  0.663700  0.860300  0.595000  1.0  0.1147
  H  H132  1  0.830100  0.660100  0.916100  1.0  0.1131
  H  H133  1  0.163300  0.116200  0.362100  1.0  0.1076
  H  H134  1  0.256400  0.997300  0.476600  1.0  0.0905
  H  H135  1  0.603700  0.912400  0.489200  1.0  0.0943
  H  H136  1  0.483700  0.805000  0.368900  1.0  0.1074
  H  H137  1  0.862500  0.598200  0.017500  1.0  0.0926
  H  H138  1  0.664100  0.605500  0.140200  1.0  0.1072
  H  H139  1  0.254600  0.057600  0.365100  1.0  0.0945
  H  H140  1  0.514700  0.885500  0.378000  1.0  0.0953
  H  H141  1  0.782000  0.572200  0.129700  1.0  0.0964
  H  H142  1  0.540200  0.466000  0.618900  1.0  0.0938
  H  H143  1  0.269200  0.290200  0.615000  1.0  0.1125
  H  H144  1  0.317000  0.240700  0.878100  1.0  0.1019
  H  H145  1  0.112200  0.223400  0.758500  1.0  0.1179
  H  H146  1  0.472500  0.612800  0.586100  1.0  0.083
  H  H147  1  0.093200  0.193800  0.587700  1.0  0.0763
  H  H148  1  0.081600  0.226400  0.923400  1.0  0.0855
  H  H149  1  0.665000  0.492200  0.585800  1.0  0.1071
  H  H150  1  0.163700  0.360300  0.595000  1.0  0.1147
  H  H151  1  0.330100  0.160100  0.916100  1.0  0.1131
  H  H152  1  0.663300  0.616200  0.362100  1.0  0.1076
  H  H153  1  0.756400  0.497300  0.476600  1.0  0.0905
  H  H154  1  0.103700  0.412400  0.489200  1.0  0.0943
  H  H155  1  0.983700  0.305000  0.368900  1.0  0.1074
  H  H156  1  0.362500  0.098200  0.017500  1.0  0.0926
  H  H157  1  0.164100  0.105500  0.140200  1.0  0.1072
  H  H158  1  0.754600  0.557600  0.365100  1.0  0.0945
  H  H159  1  0.014700  0.385500  0.378000  1.0  0.0953
  H  H160  1  0.282000  0.072200  0.129700  1.0  0.0964
  H  H161  1  0.000000  0.909600  0.250000  1.0  0.1137
  H  H162  1  0.500000  0.409600  0.250000  1.0  0.1137
  H  H163  1  0.000000  0.090400  0.750000  1.0  0.1134
  H  H164  1  0.500000  0.590400  0.750000  1.0  0.1134
  C  C165  1  0.884500  0.214700  0.241400  1.0  0.6667
  C  C166  1  0.805000  0.231200  0.246100  1.0  -0.167
  C  C167  1  0.024300  0.017400  0.171300  1.0  -0.1328
  C  C168  1  0.754600  0.224900  0.169800  1.0  -0.1099
  C  C169  1  0.783200  0.254800  0.327200  1.0  -0.1454
  C  C170  1  0.024500  0.968100  0.172200  1.0  0.1555
  C  C171  1  0.682700  0.241500  0.176400  1.0  0.1892
  C  C172  1  0.711200  0.271400  0.331600  1.0  0.1352
  C  C173  1  0.660600  0.265000  0.255600  1.0  -0.225
  C  C174  1  0.014600  0.900300  0.060200  1.0  0.2255
  C  C175  1  0.108500  0.949600  0.037400  1.0  0.0646
  C  C176  1  0.607500  0.198200  0.045400  1.0  0.0783
  C  C177  1  0.588900  0.275400  0.063500  1.0  0.22
  C  C178  1  0.726400  0.331000  0.466200  1.0  0.0785
  C  C179  1  0.618400  0.294100  0.447500  1.0  0.2199
  C  C180  1  0.108200  0.911300  0.972200  1.0  0.1183
  C  C181  1  0.164300  0.983500  0.041000  1.0  -0.1371
  C  C182  1  0.627800  0.150500  0.050900  1.0  -0.1515
  C  C183  1  0.552800  0.215100  0.979400  1.0  0.1393
  C  C184  1  0.797000  0.350900  0.460000  1.0  -0.1381
  C  C185  1  0.675600  0.348000  0.531300  1.0  0.144
  C  C186  1  0.163100  0.908300  0.906400  1.0  -0.1315
  C  C187  1  0.218400  0.980200  0.976100  1.0  -0.1092
  C  C188  1  0.591800  0.120000  0.987300  1.0  -0.097
  C  C189  1  0.518400  0.184000  0.914400  1.0  -0.126
  C  C190  1  0.816000  0.387400  0.521000  1.0  -0.1006
  C  C191  1  0.696400  0.383900  0.594900  1.0  -0.1343
  C  C192  1  0.217600  0.943400  0.909000  1.0  -0.1329
  C  C193  1  0.537700  0.136200  0.919600  1.0  -0.1251
  C  C194  1  0.767000  0.403500  0.588400  1.0  -0.1111
  C  C195  1  0.384500  0.714700  0.241400  1.0  0.6667
  C  C196  1  0.305000  0.731200  0.246100  1.0  -0.167
  C  C197  1  0.524300  0.517400  0.171300  1.0  -0.1328
  C  C198  1  0.254600  0.724900  0.169800  1.0  -0.1099
  C  C199  1  0.283200  0.754800  0.327200  1.0  -0.1454
  C  C200  1  0.524500  0.468100  0.172200  1.0  0.1555
  C  C201  1  0.182700  0.741500  0.176400  1.0  0.1892
  C  C202  1  0.211200  0.771400  0.331600  1.0  0.1352
  C  C203  1  0.160600  0.765000  0.255600  1.0  -0.225
  C  C204  1  0.514600  0.400300  0.060200  1.0  0.2255
  C  C205  1  0.608500  0.449600  0.037400  1.0  0.0646
  C  C206  1  0.107500  0.698200  0.045400  1.0  0.0783
  C  C207  1  0.088900  0.775400  0.063500  1.0  0.22
  C  C208  1  0.226400  0.831000  0.466200  1.0  0.0785
  C  C209  1  0.118400  0.794100  0.447500  1.0  0.2199
  C  C210  1  0.608200  0.411300  0.972200  1.0  0.1183
  C  C211  1  0.664300  0.483500  0.041000  1.0  -0.1371
  C  C212  1  0.127800  0.650500  0.050900  1.0  -0.1515
  C  C213  1  0.052800  0.715100  0.979400  1.0  0.1393
  C  C214  1  0.297000  0.850900  0.460000  1.0  -0.1381
  C  C215  1  0.175600  0.848000  0.531300  1.0  0.144
  C  C216  1  0.663100  0.408300  0.906400  1.0  -0.1315
  C  C217  1  0.718400  0.480200  0.976100  1.0  -0.1096
  C  C218  1  0.091800  0.620000  0.987300  1.0  -0.097
  C  C219  1  0.018400  0.684000  0.914400  1.0  -0.126
  C  C220  1  0.316000  0.887400  0.521000  1.0  -0.1006
  C  C221  1  0.196400  0.883900  0.594900  1.0  -0.1343
  C  C222  1  0.717600  0.443400  0.909000  1.0  -0.1345
  C  C223  1  0.037700  0.636200  0.919600  1.0  -0.1251
  C  C224  1  0.267000  0.903500  0.588400  1.0  -0.1111
  C  C225  1  0.115500  0.214700  0.258600  1.0  0.6658
  C  C226  1  0.195000  0.231200  0.253900  1.0  -0.1676
  C  C227  1  0.975700  0.017400  0.328700  1.0  -0.1334
  C  C228  1  0.245400  0.224900  0.330200  1.0  -0.1098
  C  C229  1  0.216800  0.254800  0.172800  1.0  -0.146
  C  C230  1  0.975500  0.968100  0.327800  1.0  0.155
  C  C231  1  0.317300  0.241500  0.323600  1.0  0.1941
  C  C232  1  0.288800  0.271400  0.168400  1.0  0.1357
  C  C233  1  0.339400  0.265000  0.244400  1.0  -0.2234
  C  C234  1  0.985400  0.900300  0.439800  1.0  0.225
  C  C235  1  0.891500  0.949600  0.462600  1.0  0.065
  C  C236  1  0.392500  0.198200  0.454600  1.0  0.0771
  C  C237  1  0.411100  0.275400  0.436500  1.0  0.2195
  C  C238  1  0.273600  0.331000  0.033800  1.0  0.078
  C  C239  1  0.381600  0.294100  0.052500  1.0  0.2177
  C  C240  1  0.891800  0.911300  0.527800  1.0  0.119
  C  C241  1  0.835700  0.983500  0.459000  1.0  -0.1378
  C  C242  1  0.372200  0.150500  0.449100  1.0  -0.154
  C  C243  1  0.447200  0.215100  0.520600  1.0  0.1384
  C  C244  1  0.203000  0.350900  0.040000  1.0  -0.1393
  C  C245  1  0.324400  0.348000  0.968700  1.0  0.1445
  C  C246  1  0.836900  0.908300  0.593600  1.0  -0.1295
  C  C247  1  0.781600  0.980200  0.523900  1.0  -0.1112
  C  C248  1  0.408200  0.120000  0.512700  1.0  -0.0991
  C  C249  1  0.481600  0.184000  0.585600  1.0  -0.1277
  C  C250  1  0.184000  0.387400  0.979000  1.0  -0.1028
  C  C251  1  0.303600  0.383900  0.905100  1.0  -0.1377
  C  C252  1  0.782400  0.943400  0.591000  1.0  -0.1362
  C  C253  1  0.462300  0.136200  0.580400  1.0  -0.1216
  C  C254  1  0.233000  0.403500  0.911600  1.0  -0.1123
  C  C255  1  0.615500  0.714700  0.258600  1.0  0.6658
  C  C256  1  0.695000  0.731200  0.253900  1.0  -0.1676
  C  C257  1  0.475700  0.517400  0.328700  1.0  -0.1334
  C  C258  1  0.745400  0.724900  0.330200  1.0  -0.1098
  C  C259  1  0.716800  0.754800  0.172800  1.0  -0.146
  C  C260  1  0.475500  0.468100  0.327800  1.0  0.155
  C  C261  1  0.817300  0.741500  0.323600  1.0  0.1941
  C  C262  1  0.788800  0.771400  0.168400  1.0  0.1357
  C  C263  1  0.839400  0.765000  0.244400  1.0  -0.2234
  C  C264  1  0.485400  0.400300  0.439800  1.0  0.225
  C  C265  1  0.391500  0.449600  0.462600  1.0  0.065
  C  C266  1  0.892500  0.698200  0.454600  1.0  0.0771
  C  C267  1  0.911100  0.775400  0.436500  1.0  0.2195
  C  C268  1  0.773600  0.831000  0.033800  1.0  0.078
  C  C269  1  0.881600  0.794100  0.052500  1.0  0.2177
  C  C270  1  0.391800  0.411300  0.527800  1.0  0.119
  C  C271  1  0.335700  0.483500  0.459000  1.0  -0.1378
  C  C272  1  0.872200  0.650500  0.449100  1.0  -0.154
  C  C273  1  0.947200  0.715100  0.520600  1.0  0.1389
  C  C274  1  0.703000  0.850900  0.040000  1.0  -0.1393
  C  C275  1  0.824400  0.848000  0.968700  1.0  0.1445
  C  C276  1  0.336900  0.408300  0.593600  1.0  -0.1295
  C  C277  1  0.281600  0.480200  0.523900  1.0  -0.1102
  C  C278  1  0.908200  0.620000  0.512700  1.0  -0.0991
  C  C279  1  0.981600  0.684000  0.585600  1.0  -0.1277
  C  C280  1  0.684000  0.887400  0.979000  1.0  -0.1028
  C  C281  1  0.803600  0.883900  0.905100  1.0  -0.1377
  C  C282  1  0.282400  0.443400  0.591000  1.0  -0.1404
  C  C283  1  0.962300  0.636200  0.580400  1.0  -0.1192
  C  C284  1  0.733000  0.903500  0.911600  1.0  -0.1123
  C  C285  1  0.115500  0.785300  0.758600  1.0  0.6661
  C  C286  1  0.195000  0.768800  0.753900  1.0  -0.1679
  C  C287  1  0.975700  0.982600  0.828700  1.0  -0.134
  C  C288  1  0.245400  0.775100  0.830200  1.0  -0.1096
  C  C289  1  0.216800  0.745200  0.672800  1.0  -0.1456
  C  C290  1  0.975500  0.031900  0.827800  1.0  0.1547
  C  C291  1  0.317300  0.758500  0.823600  1.0  0.2017
  C  C292  1  0.288800  0.728600  0.668400  1.0  0.1362
  C  C293  1  0.339400  0.735000  0.744400  1.0  -0.222
  C  C294  1  0.985400  0.099700  0.939800  1.0  0.225
  C  C295  1  0.891500  0.050400  0.962600  1.0  0.0646
  C  C296  1  0.392500  0.801800  0.954600  1.0  0.0773
  C  C297  1  0.411100  0.724600  0.936500  1.0  0.2209
  C  C298  1  0.273600  0.669000  0.533800  1.0  0.0784
  C  C299  1  0.381600  0.705900  0.552500  1.0  0.2172
  C  C300  1  0.891800  0.088700  0.027800  1.0  0.1196
  C  C301  1  0.835700  0.016500  0.959000  1.0  -0.1377
  C  C302  1  0.372200  0.849500  0.949100  1.0  -0.1521
  C  C303  1  0.447200  0.784900  0.020600  1.0  0.1386
  C  C304  1  0.203000  0.649100  0.540000  1.0  -0.138
  C  C305  1  0.324400  0.652000  0.468700  1.0  0.146
  C  C306  1  0.836900  0.091700  0.093600  1.0  -0.1297
  C  C307  1  0.781600  0.019800  0.023900  1.0  -0.1126
  C  C308  1  0.408200  0.880000  0.012700  1.0  -0.0951
  C  C309  1  0.481600  0.816000  0.085600  1.0  -0.1212
  C  C310  1  0.184000  0.612600  0.479000  1.0  -0.0986
  C  C311  1  0.303600  0.616100  0.405100  1.0  -0.1347
  C  C312  1  0.782400  0.056600  0.091000  1.0  -0.1339
  C  C313  1  0.462300  0.863800  0.080400  1.0  -0.1192
  C  C314  1  0.233000  0.596500  0.411600  1.0  -0.1145
  C  C315  1  0.615500  0.285300  0.758600  1.0  0.6661
  C  C316  1  0.695000  0.268800  0.753900  1.0  -0.1679
  C  C317  1  0.475700  0.482600  0.828700  1.0  -0.134
  C  C318  1  0.745400  0.275100  0.830200  1.0  -0.1096
  C  C319  1  0.716800  0.245200  0.672800  1.0  -0.1456
  C  C320  1  0.475500  0.531900  0.827800  1.0  0.1547
  C  C321  1  0.817300  0.258500  0.823600  1.0  0.2017
  C  C322  1  0.788800  0.228600  0.668400  1.0  0.1362
  C  C323  1  0.839400  0.235000  0.744400  1.0  -0.222
  C  C324  1  0.485400  0.599700  0.939800  1.0  0.225
  C  C325  1  0.391500  0.550400  0.962600  1.0  0.0646
  C  C326  1  0.892500  0.301800  0.954600  1.0  0.0773
  C  C327  1  0.911100  0.224600  0.936500  1.0  0.2209
  C  C328  1  0.773600  0.169000  0.533800  1.0  0.0784
  C  C329  1  0.881600  0.205900  0.552500  1.0  0.2172
  C  C330  1  0.391800  0.588700  0.027800  1.0  0.1196
  C  C331  1  0.335700  0.516500  0.959000  1.0  -0.1377
  C  C332  1  0.872200  0.349500  0.949100  1.0  -0.1521
  C  C333  1  0.947200  0.284900  0.020600  1.0  0.1387
  C  C334  1  0.703000  0.149100  0.540000  1.0  -0.138
  C  C335  1  0.824400  0.152000  0.468700  1.0  0.146
  C  C336  1  0.336900  0.591700  0.093600  1.0  -0.1297
  C  C337  1  0.281600  0.519800  0.023900  1.0  -0.1126
  C  C338  1  0.908200  0.380000  0.012700  1.0  -0.0951
  C  C339  1  0.981600  0.316000  0.085600  1.0  -0.1212
  C  C340  1  0.684000  0.112600  0.479000  1.0  -0.0986
  C  C341  1  0.803600  0.116100  0.405100  1.0  -0.1347
  C  C342  1  0.282400  0.556600  0.091000  1.0  -0.1339
  C  C343  1  0.962300  0.363800  0.080400  1.0  -0.117
  C  C344  1  0.733000  0.096500  0.411600  1.0  -0.1145
  C  C345  1  0.884500  0.785300  0.741400  1.0  0.6667
  C  C346  1  0.805000  0.768800  0.746100  1.0  -0.1666
  C  C347  1  0.024300  0.982600  0.671300  1.0  -0.1335
  C  C348  1  0.754600  0.775100  0.669800  1.0  -0.1101
  C  C349  1  0.783200  0.745200  0.827200  1.0  -0.1454
  C  C350  1  0.024500  0.031900  0.672200  1.0  0.155
  C  C351  1  0.682700  0.758500  0.676400  1.0  0.1931
  C  C352  1  0.711200  0.728600  0.831600  1.0  0.1359
  C  C353  1  0.660600  0.735000  0.755600  1.0  -0.2239
  C  C354  1  0.014600  0.099700  0.560200  1.0  0.2249
  C  C355  1  0.108500  0.050400  0.537400  1.0  0.0644
  C  C356  1  0.607500  0.801800  0.545400  1.0  0.0777
  C  C357  1  0.588900  0.724600  0.563500  1.0  0.2214
  C  C358  1  0.726400  0.669000  0.966200  1.0  0.0809
  C  C359  1  0.618400  0.705900  0.947500  1.0  0.2201
  C  C360  1  0.108200  0.088700  0.472200  1.0  0.1182
  C  C361  1  0.164300  0.016500  0.541000  1.0  -0.138
  C  C362  1  0.627800  0.849500  0.550900  1.0  -0.1502
  C  C363  1  0.552800  0.784900  0.479400  1.0  0.1401
  C  C364  1  0.797000  0.649100  0.960000  1.0  -0.138
  C  C365  1  0.675600  0.652000  0.031300  1.0  0.1445
  C  C366  1  0.163100  0.091700  0.406400  1.0  -0.1271
  C  C367  1  0.218400  0.019800  0.476100  1.0  -0.111
  C  C368  1  0.591800  0.880000  0.487300  1.0  -0.0927
  C  C369  1  0.518400  0.816000  0.414400  1.0  -0.1249
  C  C370  1  0.816000  0.612600  0.021000  1.0  -0.0974
  C  C371  1  0.696400  0.616100  0.094900  1.0  -0.1372
  C  C372  1  0.217600  0.056600  0.409000  1.0  -0.1335
  C  C373  1  0.537700  0.863800  0.419600  1.0  -0.1241
  C  C374  1  0.767000  0.596500  0.088400  1.0  -0.1133
  C  C375  1  0.384500  0.285300  0.741400  1.0  0.6667
  C  C376  1  0.305000  0.268800  0.746100  1.0  -0.1666
  C  C377  1  0.524300  0.482600  0.671300  1.0  -0.1335
  C  C378  1  0.254600  0.275100  0.669800  1.0  -0.1101
  C  C379  1  0.283200  0.245200  0.827200  1.0  -0.1454
  C  C380  1  0.524500  0.531900  0.672200  1.0  0.155
  C  C381  1  0.182700  0.258500  0.676400  1.0  0.1931
  C  C382  1  0.211200  0.228600  0.831600  1.0  0.1359
  C  C383  1  0.160600  0.235000  0.755600  1.0  -0.2239
  C  C384  1  0.514600  0.599700  0.560200  1.0  0.2249
  C  C385  1  0.608500  0.550400  0.537400  1.0  0.0644
  C  C386  1  0.107500  0.301800  0.545400  1.0  0.0777
  C  C387  1  0.088900  0.224600  0.563500  1.0  0.2214
  C  C388  1  0.226400  0.169000  0.966200  1.0  0.0809
  C  C389  1  0.118400  0.205900  0.947500  1.0  0.2201
  C  C390  1  0.608200  0.588700  0.472200  1.0  0.1182
  C  C391  1  0.664300  0.516500  0.541000  1.0  -0.138
  C  C392  1  0.127800  0.349500  0.550900  1.0  -0.1502
  C  C393  1  0.052800  0.284900  0.479400  1.0  0.1401
  C  C394  1  0.297000  0.149100  0.960000  1.0  -0.138
  C  C395  1  0.175600  0.152000  0.031300  1.0  0.1445
  C  C396  1  0.663100  0.591700  0.406400  1.0  -0.1271
  C  C397  1  0.718400  0.519800  0.476100  1.0  -0.111
  C  C398  1  0.091800  0.380000  0.487300  1.0  -0.0927
  C  C399  1  0.018400  0.316000  0.414400  1.0  -0.1249
  C  C400  1  0.316000  0.112600  0.021000  1.0  -0.0974
  C  C401  1  0.196400  0.116100  0.094900  1.0  -0.1372
  C  C402  1  0.717600  0.556600  0.409000  1.0  -0.1335
  C  C403  1  0.037700  0.363800  0.419600  1.0  -0.1241
  C  C404  1  0.267000  0.096500  0.088400  1.0  -0.1133
  C  C405  1  0.000000  0.095900  0.250000  1.0  0.6725
  C  C406  1  0.000000  0.042300  0.250000  1.0  -0.1642
  C  C407  1  0.000000  0.942800  0.250000  1.0  -0.2275
  C  C408  1  0.500000  0.595900  0.250000  1.0  0.6725
  C  C409  1  0.500000  0.542300  0.250000  1.0  -0.1642
  C  C410  1  0.500000  0.442800  0.250000  1.0  -0.2275
  C  C411  1  0.000000  0.904100  0.750000  1.0  0.6715
  C  C412  1  0.000000  0.957700  0.750000  1.0  -0.164
  C  C413  1  0.000000  0.057200  0.750000  1.0  -0.2289
  C  C414  1  0.500000  0.404100  0.750000  1.0  0.6715
  C  C415  1  0.500000  0.457700  0.750000  1.0  -0.164
  C  C416  1  0.500000  0.557200  0.750000  1.0  -0.2289
  N  N417  1  0.958100  0.235900  0.007000  1.0  -0.4358
  N  N418  1  0.107900  0.175800  0.018100  1.0  -0.4244
  N  N419  1  0.951800  0.119300  0.011100  1.0  -0.4368
  N  N420  1  0.046800  0.941600  0.092800  1.0  -0.0505
  N  N421  1  0.630500  0.238000  0.097800  1.0  -0.0466
  N  N422  1  0.688000  0.296100  0.413800  1.0  -0.0413
  N  N423  1  0.458100  0.735900  0.007000  1.0  -0.4358
  N  N424  1  0.607900  0.675800  0.018100  1.0  -0.4244
  N  N425  1  0.451800  0.619300  0.011100  1.0  -0.4368
  N  N426  1  0.546800  0.441600  0.092800  1.0  -0.0496
  N  N427  1  0.130500  0.738000  0.097800  1.0  -0.0466
  N  N428  1  0.188000  0.796100  0.413800  1.0  -0.0413
  N  N429  1  0.041900  0.235900  0.493000  1.0  -0.4347
  N  N430  1  0.892100  0.175800  0.481900  1.0  -0.4234
  N  N431  1  0.048200  0.119300  0.488900  1.0  -0.4358
  N  N432  1  0.953200  0.941600  0.407200  1.0  -0.0505
  N  N433  1  0.369500  0.238000  0.402200  1.0  -0.0465
  N  N434  1  0.312000  0.296100  0.086200  1.0  -0.0416
  N  N435  1  0.541900  0.735900  0.493000  1.0  -0.4347
  N  N436  1  0.392100  0.675800  0.481900  1.0  -0.4234
  N  N437  1  0.548200  0.619300  0.488900  1.0  -0.4358
  N  N438  1  0.453200  0.441600  0.407200  1.0  -0.0467
  N  N439  1  0.869500  0.738000  0.402200  1.0  -0.0465
  N  N440  1  0.812000  0.796100  0.086200  1.0  -0.0416
  N  N441  1  0.041900  0.764100  0.993000  1.0  -0.436
  N  N442  1  0.892100  0.824200  0.981900  1.0  -0.4231
  N  N443  1  0.048200  0.880700  0.988900  1.0  -0.4361
  N  N444  1  0.953200  0.058400  0.907200  1.0  -0.0505
  N  N445  1  0.369500  0.762000  0.902200  1.0  -0.0447
  N  N446  1  0.312000  0.703900  0.586200  1.0  -0.0413
  N  N447  1  0.541900  0.264100  0.993000  1.0  -0.436
  N  N448  1  0.392100  0.324200  0.981900  1.0  -0.4231
  N  N449  1  0.548200  0.380700  0.988900  1.0  -0.4361
  N  N450  1  0.453200  0.558400  0.907200  1.0  -0.0495
  N  N451  1  0.869500  0.262000  0.902200  1.0  -0.0447
  N  N452  1  0.812000  0.203900  0.586200  1.0  -0.0413
  N  N453  1  0.958100  0.764100  0.507000  1.0  -0.4359
  N  N454  1  0.107900  0.824200  0.518100  1.0  -0.4244
  N  N455  1  0.951800  0.880700  0.511100  1.0  -0.4371
  N  N456  1  0.046800  0.058400  0.592800  1.0  -0.0505
  N  N457  1  0.630500  0.762000  0.597800  1.0  -0.0417
  N  N458  1  0.688000  0.703900  0.913800  1.0  -0.0388
  N  N459  1  0.458100  0.264100  0.507000  1.0  -0.4359
  N  N460  1  0.607900  0.324200  0.518100  1.0  -0.4244
  N  N461  1  0.451800  0.380700  0.511100  1.0  -0.4371
  N  N462  1  0.546800  0.558400  0.592800  1.0  -0.0505
  N  N463  1  0.130500  0.262000  0.597800  1.0  -0.0417
  N  N464  1  0.188000  0.203900  0.913800  1.0  -0.0388
  O  O465  1  0.036500  0.116500  0.187200  1.0  -0.6179
  O  O466  1  0.899500  0.190400  0.168600  1.0  -0.6096
  O  O467  1  0.070800  0.225900  0.191800  1.0  -0.6213
  O  O468  1  0.536500  0.616500  0.187200  1.0  -0.618
  O  O469  1  0.399500  0.690400  0.168600  1.0  -0.6096
  O  O470  1  0.570800  0.725900  0.191800  1.0  -0.6213
  O  O471  1  0.963500  0.116500  0.312800  1.0  -0.6175
  O  O472  1  0.100500  0.190400  0.331400  1.0  -0.6058
  O  O473  1  0.929200  0.225900  0.308200  1.0  -0.622
  O  O474  1  0.463500  0.616500  0.312800  1.0  -0.6175
  O  O475  1  0.600500  0.690400  0.331400  1.0  -0.6058
  O  O476  1  0.429200  0.725900  0.308200  1.0  -0.622
  O  O477  1  0.963500  0.883500  0.812800  1.0  -0.6177
  O  O478  1  0.100500  0.809600  0.831400  1.0  -0.6056
  O  O479  1  0.929200  0.774100  0.808200  1.0  -0.6224
  O  O480  1  0.463500  0.383500  0.812800  1.0  -0.6177
  O  O481  1  0.600500  0.309600  0.831400  1.0  -0.6056
  O  O482  1  0.429200  0.274100  0.808200  1.0  -0.6224
  O  O483  1  0.036500  0.883500  0.687200  1.0  -0.6179
  O  O484  1  0.899500  0.809600  0.668600  1.0  -0.6083
  O  O485  1  0.070800  0.774100  0.691800  1.0  -0.6218
  O  O486  1  0.536500  0.383500  0.687200  1.0  -0.6181
  O  O487  1  0.399500  0.309600  0.668600  1.0  -0.6083
  O  O488  1  0.570800  0.274100  0.691800  1.0  -0.6218
