# generated using pymatgen
data_Mn2H39C63(N2O)6
_symmetry_space_group_name_H-M   'P 1'
_cell_length_a   17.87200000
_cell_length_b   28.46200000
_cell_length_c   14.14640000
_cell_angle_alpha   90.00000000
_cell_angle_beta   91.66200000
_cell_angle_gamma   90.00000000
_symmetry_Int_Tables_number   1
_chemical_formula_structural   Mn2H39C63(N2O)6
_chemical_formula_sum   'Mn8 H156 C252 N48 O24'
_cell_volume   7192.86260527
_cell_formula_units_Z   4
loop_
 _symmetry_equiv_pos_site_id
 _symmetry_equiv_pos_as_xyz
  1  'x, y, z'
loop_
 _atom_site_type_symbol
 _atom_site_label
 _atom_site_symmetry_multiplicity
 _atom_site_fract_x
 _atom_site_fract_y
 _atom_site_fract_z
 _atom_site_occupancy
 _atom_site_charge
  Mn  Mn1  1  0.002180  0.175190  0.604560  1.0  0.977
  Mn  Mn2  1  0.502180  0.675190  0.604560  1.0  0.977
  Mn  Mn3  1  0.997820  0.175190  0.895440  1.0  0.9772
  Mn  Mn4  1  0.497820  0.675190  0.895440  1.0  0.9772
  Mn  Mn5  1  0.997820  0.824810  0.395440  1.0  0.9765
  Mn  Mn6  1  0.497820  0.324810  0.395440  1.0  0.9765
  Mn  Mn7  1  0.002180  0.824810  0.104560  1.0  0.9764
  Mn  Mn8  1  0.502180  0.324810  0.104560  1.0  0.9764
  H  H9  1  0.962500  0.034500  0.882300  1.0  0.0962
  H  H10  1  0.817700  0.257700  0.881700  1.0  0.0915
  H  H11  1  0.774700  0.212100  0.615900  1.0  0.103
  H  H12  1  0.617400  0.283000  0.755700  1.0  0.1178
  H  H13  1  0.025100  0.888200  0.911600  1.0  0.0731
  H  H14  1  0.579100  0.280700  0.915700  1.0  0.0759
  H  H15  1  0.594900  0.308700  0.590800  1.0  0.0739
  H  H16  1  0.841300  0.013100  0.925700  1.0  0.1067
  H  H17  1  0.837300  0.333333  0.929800  1.0  0.1138
  H  H18  1  0.675500  0.148300  0.585100  1.0  0.1072
  H  H19  1  0.836700  0.886500  0.142000  1.0  0.1066
  H  H20  1  0.748000  0.006700  0.036800  1.0  0.0865
  H  H21  1  0.663700  0.392000  0.144100  1.0  0.1064
  H  H22  1  0.870100  0.391300  0.038500  1.0  0.0901
  H  H23  1  0.492600  0.201700  0.367200  1.0  0.1058
  H  H24  1  0.615700  0.097300  0.479900  1.0  0.0864
  H  H25  1  0.749500  0.946700  0.146100  1.0  0.0844
  H  H26  1  0.786400  0.418000  0.147800  1.0  0.0869
  H  H27  1  0.530000  0.124500  0.368200  1.0  0.0902
  H  H28  1  0.462500  0.534500  0.882300  1.0  0.0962
  H  H29  1  0.317700  0.757700  0.881700  1.0  0.0914
  H  H30  1  0.274700  0.712100  0.615900  1.0  0.103
  H  H31  1  0.117400  0.783000  0.755700  1.0  0.1178
  H  H32  1  0.525100  0.388200  0.911600  1.0  0.0731
  H  H33  1  0.079100  0.780700  0.915700  1.0  0.0759
  H  H34  1  0.094900  0.808700  0.590800  1.0  0.0739
  H  H35  1  0.341300  0.513100  0.925700  1.0  0.1067
  H  H36  1  0.337300  0.833300  0.929800  1.0  0.1133
  H  H37  1  0.175500  0.648300  0.585100  1.0  0.1072
  H  H38  1  0.336700  0.386500  0.142000  1.0  0.1066
  H  H39  1  0.248000  0.506700  0.036800  1.0  0.0865
  H  H40  1  0.163700  0.892000  0.144100  1.0  0.1064
  H  H41  1  0.370100  0.891300  0.038500  1.0  0.0901
  H  H42  1  0.992600  0.701700  0.367200  1.0  0.1058
  H  H43  1  0.115700  0.597300  0.479900  1.0  0.0864
  H  H44  1  0.249500  0.446700  0.146100  1.0  0.0844
  H  H45  1  0.286400  0.918000  0.147800  1.0  0.0869
  H  H46  1  0.030000  0.624500  0.368200  1.0  0.0902
  H  H47  1  0.037500  0.034500  0.617700  1.0  0.0959
  H  H48  1  0.182300  0.257700  0.618300  1.0  0.0914
  H  H49  1  0.225300  0.212100  0.884100  1.0  0.1038
  H  H50  1  0.382600  0.283000  0.744300  1.0  0.1172
  H  H51  1  0.974900  0.888200  0.588400  1.0  0.0734
  H  H52  1  0.420900  0.280700  0.584300  1.0  0.0762
  H  H53  1  0.405100  0.308700  0.909200  1.0  0.0737
  H  H54  1  0.158700  0.013100  0.574300  1.0  0.1061
  H  H55  1  0.162700  0.333333  0.570200  1.0  0.1133
  H  H56  1  0.324500  0.148300  0.914900  1.0  0.1069
  H  H57  1  0.163300  0.886500  0.358000  1.0  0.1086
  H  H58  1  0.252000  0.006700  0.463200  1.0  0.0871
  H  H59  1  0.336300  0.392000  0.355900  1.0  0.1073
  H  H60  1  0.129900  0.391300  0.461500  1.0  0.0901
  H  H61  1  0.507400  0.201700  0.132800  1.0  0.1055
  H  H62  1  0.384300  0.097300  0.020100  1.0  0.0862
  H  H63  1  0.250500  0.946700  0.353900  1.0  0.0849
  H  H64  1  0.213600  0.418000  0.352200  1.0  0.0871
  H  H65  1  0.470000  0.124500  0.131800  1.0  0.0907
  H  H66  1  0.537500  0.534500  0.617700  1.0  0.0959
  H  H67  1  0.682300  0.757700  0.618300  1.0  0.0914
  H  H68  1  0.725300  0.712100  0.884100  1.0  0.1038
  H  H69  1  0.882600  0.783000  0.744300  1.0  0.1172
  H  H70  1  0.474900  0.388200  0.588400  1.0  0.0734
  H  H71  1  0.920900  0.780700  0.584300  1.0  0.0762
  H  H72  1  0.905100  0.808700  0.909200  1.0  0.0737
  H  H73  1  0.658700  0.513100  0.574300  1.0  0.1061
  H  H74  1  0.662700  0.833300  0.570200  1.0  0.1127
  H  H75  1  0.824500  0.648300  0.914900  1.0  0.1069
  H  H76  1  0.663300  0.386500  0.358000  1.0  0.1086
  H  H77  1  0.752000  0.506700  0.463200  1.0  0.0871
  H  H78  1  0.836300  0.892000  0.355900  1.0  0.1073
  H  H79  1  0.629900  0.891300  0.461500  1.0  0.0901
  H  H80  1  0.007400  0.701700  0.132800  1.0  0.1055
  H  H81  1  0.884300  0.597300  0.020100  1.0  0.0862
  H  H82  1  0.750500  0.446700  0.353900  1.0  0.0849
  H  H83  1  0.713600  0.918000  0.352200  1.0  0.0871
  H  H84  1  0.970000  0.624500  0.131800  1.0  0.0907
  H  H85  1  0.037500  0.965500  0.117700  1.0  0.096
  H  H86  1  0.182300  0.742300  0.118300  1.0  0.0909
  H  H87  1  0.225300  0.787900  0.384100  1.0  0.1035
  H  H88  1  0.382600  0.717000  0.244300  1.0  0.1175
  H  H89  1  0.974900  0.111800  0.088400  1.0  0.0732
  H  H90  1  0.420900  0.719300  0.084300  1.0  0.0759
  H  H91  1  0.405100  0.691300  0.409200  1.0  0.0738
  H  H92  1  0.158700  0.986900  0.074300  1.0  0.1066
  H  H93  1  0.162700  0.666667  0.070200  1.0  0.1141
  H  H94  1  0.324500  0.851700  0.414900  1.0  0.1074
  H  H95  1  0.163300  0.113500  0.858000  1.0  0.1063
  H  H96  1  0.252000  0.993300  0.963200  1.0  0.0867
  H  H97  1  0.336300  0.608000  0.855900  1.0  0.1072
  H  H98  1  0.129900  0.608700  0.961500  1.0  0.0908
  H  H99  1  0.507400  0.798300  0.632800  1.0  0.1056
  H  H100  1  0.384300  0.902700  0.520100  1.0  0.0858
  H  H101  1  0.250500  0.053300  0.853900  1.0  0.084
  H  H102  1  0.213600  0.582000  0.852200  1.0  0.0856
  H  H103  1  0.470000  0.875500  0.631800  1.0  0.0904
  H  H104  1  0.537500  0.465500  0.117700  1.0  0.096
  H  H105  1  0.682300  0.242300  0.118300  1.0  0.0909
  H  H106  1  0.725300  0.287900  0.384100  1.0  0.1035
  H  H107  1  0.882600  0.217000  0.244300  1.0  0.1175
  H  H108  1  0.474900  0.611800  0.088400  1.0  0.0732
  H  H109  1  0.920900  0.219300  0.084300  1.0  0.0759
  H  H110  1  0.905100  0.191300  0.409200  1.0  0.0738
  H  H111  1  0.658700  0.486900  0.074300  1.0  0.1066
  H  H112  1  0.662700  0.166700  0.070200  1.0  0.1135
  H  H113  1  0.824500  0.351700  0.414900  1.0  0.1074
  H  H114  1  0.663300  0.613500  0.858000  1.0  0.1063
  H  H115  1  0.752000  0.493300  0.963200  1.0  0.0867
  H  H116  1  0.836300  0.108000  0.855900  1.0  0.1072
  H  H117  1  0.629900  0.108700  0.961500  1.0  0.0908
  H  H118  1  0.007400  0.298300  0.632800  1.0  0.1056
  H  H119  1  0.884300  0.402700  0.520100  1.0  0.0858
  H  H120  1  0.750500  0.553300  0.853900  1.0  0.084
  H  H121  1  0.713600  0.082000  0.852200  1.0  0.0856
  H  H122  1  0.970000  0.375500  0.631800  1.0  0.0904
  H  H123  1  0.962500  0.965500  0.382300  1.0  0.0963
  H  H124  1  0.817700  0.742300  0.381700  1.0  0.0917
  H  H125  1  0.774700  0.787900  0.115900  1.0  0.1032
  H  H126  1  0.617400  0.717000  0.255700  1.0  0.118
  H  H127  1  0.025100  0.111800  0.411600  1.0  0.0729
  H  H128  1  0.579100  0.719300  0.415700  1.0  0.0756
  H  H129  1  0.594900  0.691300  0.090800  1.0  0.0738
  H  H130  1  0.841300  0.986900  0.425700  1.0  0.1064
  H  H131  1  0.837300  0.666667  0.429800  1.0  0.1146
  H  H132  1  0.675500  0.851700  0.085100  1.0  0.1066
  H  H133  1  0.836700  0.113500  0.642000  1.0  0.1084
  H  H134  1  0.748000  0.993300  0.536800  1.0  0.0866
  H  H135  1  0.663700  0.608000  0.644100  1.0  0.1064
  H  H136  1  0.870100  0.608700  0.538500  1.0  0.0905
  H  H137  1  0.492600  0.798300  0.867200  1.0  0.1063
  H  H138  1  0.615700  0.902700  0.979900  1.0  0.086
  H  H139  1  0.749500  0.053300  0.646100  1.0  0.0853
  H  H140  1  0.786400  0.582000  0.647800  1.0  0.0867
  H  H141  1  0.530000  0.875500  0.868200  1.0  0.0901
  H  H142  1  0.462500  0.465500  0.382300  1.0  0.0963
  H  H143  1  0.317700  0.242300  0.381700  1.0  0.0917
  H  H144  1  0.274700  0.287900  0.115900  1.0  0.1032
  H  H145  1  0.117400  0.217000  0.255700  1.0  0.118
  H  H146  1  0.525100  0.611800  0.411600  1.0  0.0729
  H  H147  1  0.079100  0.219300  0.415700  1.0  0.0756
  H  H148  1  0.094900  0.191300  0.090800  1.0  0.0738
  H  H149  1  0.341300  0.486900  0.425700  1.0  0.1064
  H  H150  1  0.337300  0.166700  0.429800  1.0  0.114
  H  H151  1  0.175500  0.351700  0.085100  1.0  0.1066
  H  H152  1  0.336700  0.613500  0.642000  1.0  0.1084
  H  H153  1  0.248000  0.493300  0.536800  1.0  0.0866
  H  H154  1  0.163700  0.108000  0.644100  1.0  0.1064
  H  H155  1  0.370100  0.108700  0.538500  1.0  0.0905
  H  H156  1  0.992600  0.298300  0.867200  1.0  0.1063
  H  H157  1  0.115700  0.402700  0.979900  1.0  0.086
  H  H158  1  0.249500  0.553300  0.646100  1.0  0.0853
  H  H159  1  0.286400  0.082000  0.647800  1.0  0.0867
  H  H160  1  0.030000  0.375500  0.868200  1.0  0.0901
  H  H161  1  0.000000  0.911800  0.750000  1.0  0.1133
  H  H162  1  0.500000  0.411800  0.750000  1.0  0.1133
  H  H163  1  0.000000  0.088200  0.250000  1.0  0.113
  H  H164  1  0.500000  0.588200  0.250000  1.0  0.113
  C  C165  1  0.886200  0.212440  0.746000  1.0  0.6787
  C  C166  1  0.808600  0.231880  0.748700  1.0  -0.1604
  C  C167  1  0.977100  0.018200  0.828900  1.0  -0.1662
  C  C168  1  0.785300  0.254800  0.829500  1.0  -0.1528
  C  C169  1  0.759500  0.227370  0.670200  1.0  -0.1202
  C  C170  1  0.976400  0.969510  0.827300  1.0  0.1331
  C  C171  1  0.714700  0.273070  0.832100  1.0  0.1613
  C  C172  1  0.688800  0.245690  0.674300  1.0  0.1666
  C  C173  1  0.664900  0.269690  0.754300  1.0  -0.2295
  C  C174  1  0.983800  0.901820  0.939200  1.0  0.2145
  C  C175  1  0.893100  0.951950  0.966700  1.0  0.097
  C  C176  1  0.728700  0.329580  0.970500  1.0  0.0572
  C  C177  1  0.617200  0.298590  0.943700  1.0  0.2033
  C  C178  1  0.593300  0.279010  0.563400  1.0  0.2176
  C  C179  1  0.618000  0.205240  0.538900  1.0  0.1318
  C  C180  1  0.891700  0.913860  0.029900  1.0  0.1413
  C  C181  1  0.840100  0.988010  0.967700  1.0  -0.1306
  C  C182  1  0.677000  0.347010  0.034100  1.0  0.1265
  C  C183  1  0.802700  0.345100  0.971400  1.0  -0.1328
  C  C184  1  0.562900  0.221630  0.474800  1.0  0.1444
  C  C185  1  0.639000  0.159000  0.542000  1.0  -0.1459
  C  C186  1  0.837700  0.911200  0.099000  1.0  -0.1573
  C  C187  1  0.785600  0.984100  0.034900  1.0  -0.1085
  C  C188  1  0.697800  0.380530  0.101500  1.0  -0.1292
  C  C189  1  0.821800  0.379200  0.037400  1.0  -0.1199
  C  C190  1  0.529100  0.191200  0.410400  1.0  -0.1143
  C  C191  1  0.603800  0.129100  0.478500  1.0  -0.0855
  C  C192  1  0.785800  0.947100  0.100200  1.0  -0.1201
  C  C193  1  0.770700  0.396000  0.102800  1.0  -0.1054
  C  C194  1  0.550900  0.145400  0.412200  1.0  -0.0982
  C  C195  1  0.386200  0.712440  0.746000  1.0  0.6787
  C  C196  1  0.308600  0.731880  0.748700  1.0  -0.1604
  C  C197  1  0.477100  0.518200  0.828900  1.0  -0.1662
  C  C198  1  0.285300  0.754800  0.829500  1.0  -0.1528
  C  C199  1  0.259500  0.727370  0.670200  1.0  -0.1202
  C  C200  1  0.476400  0.469510  0.827300  1.0  0.1331
  C  C201  1  0.214700  0.773070  0.832100  1.0  0.1613
  C  C202  1  0.188800  0.745690  0.674300  1.0  0.1666
  C  C203  1  0.164900  0.769690  0.754300  1.0  -0.2295
  C  C204  1  0.483800  0.401820  0.939200  1.0  0.2145
  C  C205  1  0.393100  0.451950  0.966700  1.0  0.097
  C  C206  1  0.228700  0.829580  0.970500  1.0  0.0572
  C  C207  1  0.117200  0.798590  0.943700  1.0  0.2033
  C  C208  1  0.093300  0.779010  0.563400  1.0  0.2176
  C  C209  1  0.118000  0.705240  0.538900  1.0  0.1318
  C  C210  1  0.391700  0.413860  0.029900  1.0  0.1413
  C  C211  1  0.340100  0.488010  0.967700  1.0  -0.1306
  C  C212  1  0.177000  0.847010  0.034100  1.0  0.1265
  C  C213  1  0.302700  0.845100  0.971400  1.0  -0.1461
  C  C214  1  0.062900  0.721630  0.474800  1.0  0.1444
  C  C215  1  0.139000  0.659000  0.542000  1.0  -0.1459
  C  C216  1  0.337700  0.411200  0.099000  1.0  -0.1573
  C  C217  1  0.285600  0.484100  0.034900  1.0  -0.1086
  C  C218  1  0.197800  0.880530  0.101500  1.0  -0.1292
  C  C219  1  0.321800  0.879200  0.037400  1.0  -0.1201
  C  C220  1  0.029100  0.691200  0.410400  1.0  -0.1143
  C  C221  1  0.103800  0.629100  0.478500  1.0  -0.0855
  C  C222  1  0.285800  0.447100  0.100200  1.0  -0.1201
  C  C223  1  0.270700  0.896000  0.102800  1.0  -0.1054
  C  C224  1  0.050900  0.645400  0.412200  1.0  -0.0982
  C  C225  1  0.113800  0.212440  0.754000  1.0  0.6778
  C  C226  1  0.191400  0.231880  0.751300  1.0  -0.1605
  C  C227  1  0.022900  0.018200  0.671100  1.0  -0.1656
  C  C228  1  0.214700  0.254800  0.670500  1.0  -0.154
  C  C229  1  0.240500  0.227370  0.829800  1.0  -0.1199
  C  C230  1  0.023600  0.969510  0.672700  1.0  0.1341
  C  C231  1  0.285300  0.273070  0.667900  1.0  0.1621
  C  C232  1  0.311200  0.245690  0.825700  1.0  0.1674
  C  C233  1  0.335100  0.269690  0.745700  1.0  -0.2268
  C  C234  1  0.016200  0.901820  0.560800  1.0  0.2143
  C  C235  1  0.106900  0.951950  0.533300  1.0  0.0954
  C  C236  1  0.271300  0.329580  0.529500  1.0  0.0571
  C  C237  1  0.382800  0.298590  0.556300  1.0  0.2036
  C  C238  1  0.406700  0.279010  0.936600  1.0  0.2179
  C  C239  1  0.382000  0.205240  0.961100  1.0  0.1308
  C  C240  1  0.108300  0.913860  0.470100  1.0  0.1426
  C  C241  1  0.159900  0.988010  0.532300  1.0  -0.1299
  C  C242  1  0.323000  0.347010  0.465900  1.0  0.1272
  C  C243  1  0.197300  0.345100  0.528600  1.0  -0.1343
  C  C244  1  0.437100  0.221630  0.025200  1.0  0.1428
  C  C245  1  0.361000  0.159000  0.958000  1.0  -0.1479
  C  C246  1  0.162300  0.911200  0.401000  1.0  -0.1578
  C  C247  1  0.214400  0.984100  0.465100  1.0  -0.107
  C  C248  1  0.302200  0.380530  0.398500  1.0  -0.1297
  C  C249  1  0.178200  0.379200  0.462600  1.0  -0.1234
  C  C250  1  0.470900  0.191200  0.089600  1.0  -0.1146
  C  C251  1  0.396200  0.129100  0.021500  1.0  -0.0874
  C  C252  1  0.214200  0.947100  0.399800  1.0  -0.1214
  C  C253  1  0.229300  0.396000  0.397200  1.0  -0.1061
  C  C254  1  0.449100  0.145400  0.087800  1.0  -0.1003
  C  C255  1  0.613800  0.712440  0.754000  1.0  0.6778
  C  C256  1  0.691400  0.731880  0.751300  1.0  -0.1605
  C  C257  1  0.522900  0.518200  0.671100  1.0  -0.1656
  C  C258  1  0.714700  0.754800  0.670500  1.0  -0.154
  C  C259  1  0.740500  0.727370  0.829800  1.0  -0.1199
  C  C260  1  0.523600  0.469510  0.672700  1.0  0.1341
  C  C261  1  0.785300  0.773070  0.667900  1.0  0.162
  C  C262  1  0.811200  0.745690  0.825700  1.0  0.1674
  C  C263  1  0.835100  0.769690  0.745700  1.0  -0.2268
  C  C264  1  0.516200  0.401820  0.560800  1.0  0.2143
  C  C265  1  0.606900  0.451950  0.533300  1.0  0.0954
  C  C266  1  0.771300  0.829580  0.529500  1.0  0.057
  C  C267  1  0.882800  0.798590  0.556300  1.0  0.2036
  C  C268  1  0.906700  0.779010  0.936600  1.0  0.2179
  C  C269  1  0.882000  0.705240  0.961100  1.0  0.1308
  C  C270  1  0.608300  0.413860  0.470100  1.0  0.1426
  C  C271  1  0.659900  0.488010  0.532300  1.0  -0.1299
  C  C272  1  0.823000  0.847010  0.465900  1.0  0.1272
  C  C273  1  0.697300  0.845100  0.528600  1.0  -0.1474
  C  C274  1  0.937100  0.721630  0.025200  1.0  0.1428
  C  C275  1  0.861000  0.659000  0.958000  1.0  -0.1479
  C  C276  1  0.662300  0.411200  0.401000  1.0  -0.1578
  C  C277  1  0.714400  0.484100  0.465100  1.0  -0.1071
  C  C278  1  0.802200  0.880530  0.398500  1.0  -0.1297
  C  C279  1  0.678200  0.879200  0.462600  1.0  -0.1236
  C  C280  1  0.970900  0.691200  0.089600  1.0  -0.1146
  C  C281  1  0.896200  0.629100  0.021500  1.0  -0.0874
  C  C282  1  0.714200  0.447100  0.399800  1.0  -0.1214
  C  C283  1  0.729300  0.896000  0.397200  1.0  -0.1061
  C  C284  1  0.949100  0.645400  0.087800  1.0  -0.1003
  C  C285  1  0.113800  0.787560  0.254000  1.0  0.6782
  C  C286  1  0.191400  0.768120  0.251300  1.0  -0.1611
  C  C287  1  0.022900  0.981800  0.171100  1.0  -0.1653
  C  C288  1  0.214700  0.745200  0.170500  1.0  -0.1542
  C  C289  1  0.240500  0.772630  0.329800  1.0  -0.1197
  C  C290  1  0.023600  0.030490  0.172700  1.0  0.1337
  C  C291  1  0.285300  0.726930  0.167900  1.0  0.1621
  C  C292  1  0.311200  0.754310  0.325700  1.0  0.1674
  C  C293  1  0.335100  0.730310  0.245700  1.0  -0.2264
  C  C294  1  0.016200  0.098180  0.060800  1.0  0.2132
  C  C295  1  0.106900  0.048050  0.033300  1.0  0.0955
  C  C296  1  0.271300  0.670420  0.029500  1.0  0.0569
  C  C297  1  0.382800  0.701410  0.056300  1.0  0.2038
  C  C298  1  0.406700  0.720990  0.436600  1.0  0.2184
  C  C299  1  0.382000  0.794760  0.461100  1.0  0.1304
  C  C300  1  0.108300  0.086140  0.970100  1.0  0.1406
  C  C301  1  0.159900  0.011990  0.032300  1.0  -0.1301
  C  C302  1  0.323000  0.652990  0.965900  1.0  0.1267
  C  C303  1  0.197300  0.654900  0.028600  1.0  -0.134
  C  C304  1  0.437100  0.778370  0.525200  1.0  0.1427
  C  C305  1  0.361000  0.841000  0.458000  1.0  -0.1473
  C  C306  1  0.162300  0.088800  0.901000  1.0  -0.1579
  C  C307  1  0.214400  0.015900  0.965100  1.0  -0.1069
  C  C308  1  0.302200  0.619470  0.898500  1.0  -0.1307
  C  C309  1  0.178200  0.620800  0.962600  1.0  -0.1239
  C  C310  1  0.470900  0.808800  0.589600  1.0  -0.1152
  C  C311  1  0.396200  0.870900  0.521500  1.0  -0.0814
  C  C312  1  0.214200  0.052900  0.899800  1.0  -0.1209
  C  C313  1  0.229300  0.604000  0.897200  1.0  -0.107
  C  C314  1  0.449100  0.854600  0.587800  1.0  -0.0967
  C  C315  1  0.613800  0.287560  0.254000  1.0  0.6782
  C  C316  1  0.691400  0.268120  0.251300  1.0  -0.1611
  C  C317  1  0.522900  0.481800  0.171100  1.0  -0.1653
  C  C318  1  0.714700  0.245200  0.170500  1.0  -0.1542
  C  C319  1  0.740500  0.272630  0.329800  1.0  -0.1197
  C  C320  1  0.523600  0.530490  0.172700  1.0  0.1337
  C  C321  1  0.785300  0.226930  0.167900  1.0  0.1621
  C  C322  1  0.811200  0.254310  0.325700  1.0  0.1674
  C  C323  1  0.835100  0.230310  0.245700  1.0  -0.2264
  C  C324  1  0.516200  0.598180  0.060800  1.0  0.2132
  C  C325  1  0.606900  0.548050  0.033300  1.0  0.0955
  C  C326  1  0.771300  0.170420  0.029500  1.0  0.0568
  C  C327  1  0.882800  0.201410  0.056300  1.0  0.2038
  C  C328  1  0.906700  0.220990  0.436600  1.0  0.2184
  C  C329  1  0.882000  0.294760  0.461100  1.0  0.1304
  C  C330  1  0.608300  0.586140  0.970100  1.0  0.1406
  C  C331  1  0.659900  0.511990  0.032300  1.0  -0.1301
  C  C332  1  0.823000  0.152990  0.965900  1.0  0.1267
  C  C333  1  0.697300  0.154900  0.028600  1.0  -0.1471
  C  C334  1  0.937100  0.278370  0.525200  1.0  0.1427
  C  C335  1  0.861000  0.341000  0.458000  1.0  -0.1473
  C  C336  1  0.662300  0.588800  0.901000  1.0  -0.1579
  C  C337  1  0.714400  0.515900  0.965100  1.0  -0.1069
  C  C338  1  0.802200  0.119470  0.898500  1.0  -0.1307
  C  C339  1  0.678200  0.120800  0.962600  1.0  -0.1241
  C  C340  1  0.970900  0.308800  0.589600  1.0  -0.1152
  C  C341  1  0.896200  0.370900  0.521500  1.0  -0.0814
  C  C342  1  0.714200  0.552900  0.899800  1.0  -0.1209
  C  C343  1  0.729300  0.104000  0.897200  1.0  -0.107
  C  C344  1  0.949100  0.354600  0.587800  1.0  -0.0967
  C  C345  1  0.886200  0.787560  0.246000  1.0  0.6785
  C  C346  1  0.808600  0.768120  0.248700  1.0  -0.1605
  C  C347  1  0.977100  0.981800  0.328900  1.0  -0.1659
  C  C348  1  0.785300  0.745200  0.329500  1.0  -0.1534
  C  C349  1  0.759500  0.772630  0.170200  1.0  -0.12
  C  C350  1  0.976400  0.030490  0.327300  1.0  0.1333
  C  C351  1  0.714700  0.726930  0.332100  1.0  0.1615
  C  C352  1  0.688800  0.754310  0.174300  1.0  0.1667
  C  C353  1  0.664900  0.730310  0.254300  1.0  -0.2293
  C  C354  1  0.983800  0.098180  0.439200  1.0  0.2142
  C  C355  1  0.893100  0.048050  0.466700  1.0  0.0962
  C  C356  1  0.728700  0.670420  0.470500  1.0  0.0561
  C  C357  1  0.617200  0.701410  0.443700  1.0  0.2033
  C  C358  1  0.593300  0.720990  0.063400  1.0  0.2183
  C  C359  1  0.618000  0.794760  0.038900  1.0  0.1312
  C  C360  1  0.891700  0.086140  0.529900  1.0  0.1399
  C  C361  1  0.840100  0.011990  0.467700  1.0  -0.1295
  C  C362  1  0.677000  0.652990  0.534100  1.0  0.1256
  C  C363  1  0.802700  0.654900  0.471400  1.0  -0.1343
  C  C364  1  0.562900  0.778370  0.974800  1.0  0.1443
  C  C365  1  0.639000  0.841000  0.042000  1.0  -0.1459
  C  C366  1  0.837700  0.088800  0.599000  1.0  -0.1574
  C  C367  1  0.785600  0.015900  0.534900  1.0  -0.1083
  C  C368  1  0.697800  0.619470  0.601500  1.0  -0.1298
  C  C369  1  0.821800  0.620800  0.537400  1.0  -0.1211
  C  C370  1  0.529100  0.808800  0.910400  1.0  -0.1157
  C  C371  1  0.603800  0.870900  0.978500  1.0  -0.0797
  C  C372  1  0.785800  0.052900  0.600200  1.0  -0.1194
  C  C373  1  0.770700  0.604000  0.602800  1.0  -0.1065
  C  C374  1  0.550900  0.854600  0.912200  1.0  -0.095
  C  C375  1  0.386200  0.287560  0.246000  1.0  0.6785
  C  C376  1  0.308600  0.268120  0.248700  1.0  -0.1605
  C  C377  1  0.477100  0.481800  0.328900  1.0  -0.1659
  C  C378  1  0.285300  0.245200  0.329500  1.0  -0.1533
  C  C379  1  0.259500  0.272630  0.170200  1.0  -0.12
  C  C380  1  0.476400  0.530490  0.327300  1.0  0.1333
  C  C381  1  0.214700  0.226930  0.332100  1.0  0.1614
  C  C382  1  0.188800  0.254310  0.174300  1.0  0.1667
  C  C383  1  0.164900  0.230310  0.254300  1.0  -0.2293
  C  C384  1  0.483800  0.598180  0.439200  1.0  0.2142
  C  C385  1  0.393100  0.548050  0.466700  1.0  0.0962
  C  C386  1  0.228700  0.170420  0.470500  1.0  0.0561
  C  C387  1  0.117200  0.201410  0.443700  1.0  0.2033
  C  C388  1  0.093300  0.220990  0.063400  1.0  0.2183
  C  C389  1  0.118000  0.294760  0.038900  1.0  0.1312
  C  C390  1  0.391700  0.586140  0.529900  1.0  0.1399
  C  C391  1  0.340100  0.511990  0.467700  1.0  -0.1295
  C  C392  1  0.177000  0.152990  0.534100  1.0  0.1256
  C  C393  1  0.302700  0.154900  0.471400  1.0  -0.1475
  C  C394  1  0.062900  0.278370  0.974800  1.0  0.1443
  C  C395  1  0.139000  0.341000  0.042000  1.0  -0.1459
  C  C396  1  0.337700  0.588800  0.599000  1.0  -0.1574
  C  C397  1  0.285600  0.515900  0.534900  1.0  -0.1084
  C  C398  1  0.197800  0.119470  0.601500  1.0  -0.1298
  C  C399  1  0.321800  0.120800  0.537400  1.0  -0.1213
  C  C400  1  0.029100  0.308800  0.910400  1.0  -0.1157
  C  C401  1  0.103800  0.370900  0.978500  1.0  -0.0797
  C  C402  1  0.285800  0.552900  0.600200  1.0  -0.1194
  C  C403  1  0.270700  0.104000  0.602800  1.0  -0.1065
  C  C404  1  0.050900  0.354600  0.912200  1.0  -0.095
  C  C405  1  0.000000  0.094600  0.750000  1.0  0.6549
  C  C406  1  0.000000  0.042200  0.750000  1.0  -0.1544
  C  C407  1  0.000000  0.944500  0.750000  1.0  -0.232
  C  C408  1  0.500000  0.594600  0.750000  1.0  0.6549
  C  C409  1  0.500000  0.542200  0.750000  1.0  -0.1544
  C  C410  1  0.500000  0.444500  0.750000  1.0  -0.232
  C  C411  1  0.000000  0.905400  0.250000  1.0  0.6535
  C  C412  1  0.000000  0.957800  0.250000  1.0  -0.154
  C  C413  1  0.000000  0.055500  0.250000  1.0  -0.2308
  C  C414  1  0.500000  0.405400  0.250000  1.0  0.6535
  C  C415  1  0.500000  0.457800  0.250000  1.0  -0.154
  C  C416  1  0.500000  0.555500  0.250000  1.0  -0.2308
  N  N417  1  0.951900  0.231370  0.507800  1.0  -0.4171
  N  N418  1  0.106840  0.173590  0.514600  1.0  -0.3812
  N  N419  1  0.949800  0.116920  0.510300  1.0  -0.3981
  N  N420  1  0.953050  0.943330  0.909200  1.0  -0.0633
  N  N421  1  0.689180  0.298000  0.914000  1.0  -0.0462
  N  N422  1  0.637700  0.243080  0.594500  1.0  -0.017
  N  N423  1  0.451900  0.731370  0.507800  1.0  -0.4171
  N  N424  1  0.606840  0.673590  0.514600  1.0  -0.3812
  N  N425  1  0.449800  0.616920  0.510300  1.0  -0.3981
  N  N426  1  0.453050  0.443330  0.909200  1.0  -0.0633
  N  N427  1  0.189180  0.798000  0.914000  1.0  -0.0462
  N  N428  1  0.137700  0.743080  0.594500  1.0  -0.017
  N  N429  1  0.048100  0.231370  0.992200  1.0  -0.4177
  N  N430  1  0.893160  0.173590  0.985400  1.0  -0.3799
  N  N431  1  0.050200  0.116920  0.989700  1.0  -0.3978
  N  N432  1  0.046950  0.943330  0.590800  1.0  -0.0626
  N  N433  1  0.310820  0.298000  0.586000  1.0  -0.046
  N  N434  1  0.362300  0.243080  0.905500  1.0  -0.0174
  N  N435  1  0.548100  0.731370  0.992200  1.0  -0.4177
  N  N436  1  0.393160  0.673590  0.985400  1.0  -0.3799
  N  N437  1  0.550200  0.616920  0.989700  1.0  -0.3978
  N  N438  1  0.546950  0.443330  0.590800  1.0  -0.0626
  N  N439  1  0.810820  0.798000  0.586000  1.0  -0.046
  N  N440  1  0.862300  0.743080  0.905500  1.0  -0.0174
  N  N441  1  0.048100  0.768630  0.492200  1.0  -0.4174
  N  N442  1  0.893160  0.826410  0.485400  1.0  -0.3798
  N  N443  1  0.050200  0.883080  0.489700  1.0  -0.3975
  N  N444  1  0.046950  0.056670  0.090800  1.0  -0.0624
  N  N445  1  0.310820  0.702000  0.086000  1.0  -0.0465
  N  N446  1  0.362300  0.756920  0.405500  1.0  -0.0175
  N  N447  1  0.548100  0.268630  0.492200  1.0  -0.4174
  N  N448  1  0.393160  0.326410  0.485400  1.0  -0.3798
  N  N449  1  0.550200  0.383080  0.489700  1.0  -0.3975
  N  N450  1  0.546950  0.556670  0.090800  1.0  -0.0624
  N  N451  1  0.810820  0.202000  0.086000  1.0  -0.0465
  N  N452  1  0.862300  0.256920  0.405500  1.0  -0.0175
  N  N453  1  0.951900  0.768630  0.007800  1.0  -0.4166
  N  N454  1  0.106840  0.826410  0.014600  1.0  -0.3808
  N  N455  1  0.949800  0.883080  0.010300  1.0  -0.3981
  N  N456  1  0.953050  0.056670  0.409200  1.0  -0.0632
  N  N457  1  0.689180  0.702000  0.414000  1.0  -0.0465
  N  N458  1  0.637700  0.756920  0.094500  1.0  -0.0167
  N  N459  1  0.451900  0.268630  0.007800  1.0  -0.4166
  N  N460  1  0.606840  0.326410  0.014600  1.0  -0.3808
  N  N461  1  0.449800  0.383080  0.010300  1.0  -0.3981
  N  N462  1  0.453050  0.556670  0.409200  1.0  -0.0632
  N  N463  1  0.189180  0.202000  0.414000  1.0  -0.0465
  N  N464  1  0.137700  0.256920  0.094500  1.0  -0.0167
  O  O465  1  0.034660  0.114710  0.685200  1.0  -0.6116
  O  O466  1  0.900200  0.187000  0.675470  1.0  -0.6089
  O  O467  1  0.069670  0.222470  0.687030  1.0  -0.6146
  O  O468  1  0.534660  0.614710  0.685200  1.0  -0.6116
  O  O469  1  0.400200  0.687000  0.675470  1.0  -0.6089
  O  O470  1  0.569670  0.722470  0.687030  1.0  -0.6146
  O  O471  1  0.965340  0.114710  0.814800  1.0  -0.611
  O  O472  1  0.099800  0.187000  0.824530  1.0  -0.6085
  O  O473  1  0.930330  0.222470  0.812970  1.0  -0.6149
  O  O474  1  0.465340  0.614710  0.814800  1.0  -0.611
  O  O475  1  0.599800  0.687000  0.824530  1.0  -0.6085
  O  O476  1  0.430330  0.722470  0.812970  1.0  -0.6149
  O  O477  1  0.965340  0.885290  0.314800  1.0  -0.6112
  O  O478  1  0.099800  0.813000  0.324530  1.0  -0.6087
  O  O479  1  0.930330  0.777530  0.312970  1.0  -0.6153
  O  O480  1  0.465340  0.385290  0.314800  1.0  -0.6112
  O  O481  1  0.599800  0.313000  0.324530  1.0  -0.6087
  O  O482  1  0.430330  0.277530  0.312970  1.0  -0.6153
  O  O483  1  0.034660  0.885290  0.185200  1.0  -0.6117
  O  O484  1  0.900200  0.813000  0.175470  1.0  -0.6086
  O  O485  1  0.069670  0.777530  0.187030  1.0  -0.6153
  O  O486  1  0.534660  0.385290  0.185200  1.0  -0.6117
  O  O487  1  0.400200  0.313000  0.175470  1.0  -0.6086
  O  O488  1  0.569670  0.277530  0.187030  1.0  -0.6153
