# generated using pymatgen
data_Co2H39C63(N2O)6
_symmetry_space_group_name_H-M   'P 1'
_cell_length_a   16.97500000
_cell_length_b   16.97500000
_cell_length_c   13.91700000
_cell_angle_alpha   90.00000000
_cell_angle_beta   90.00000000
_cell_angle_gamma   120.00000000
_symmetry_Int_Tables_number   1
_chemical_formula_structural   Co2H39C63(N2O)6
_chemical_formula_sum   'Co4 H78 C126 N24 O12'
_cell_volume   3472.92836094
_cell_formula_units_Z   2
loop_
 _symmetry_equiv_pos_site_id
 _symmetry_equiv_pos_as_xyz
  1  'x, y, z'
loop_
 _atom_site_type_symbol
 _atom_site_label
 _atom_site_symmetry_multiplicity
 _atom_site_fract_x
 _atom_site_fract_y
 _atom_site_fract_z
 _atom_site_occupancy
 _atom_site_charge
  Co  Co1  1  0.666667  0.333333  0.603390  1.0  0.8507
  Co  Co2  1  0.666667  0.333333  0.896610  1.0  0.8511
  Co  Co3  1  0.333333  0.666667  0.396610  1.0  0.8511
  Co  Co4  1  0.333333  0.666667  0.103390  1.0  0.8507
  H  H5  1  0.934300  0.423200  0.884800  1.0  0.1029
  H  H6  1  0.212400  0.635700  0.917400  1.0  0.0735
  H  H7  1  0.231000  0.432200  0.140100  1.0  0.1045
  H  H8  1  0.127100  0.278200  0.134100  1.0  0.096
  H  H9  1  0.011500  0.219500  0.020700  1.0  0.0935
  H  H10  1  0.990800  0.314300  0.916900  1.0  0.1098
  H  H11  1  0.576800  0.511100  0.884800  1.0  0.1029
  H  H12  1  0.364300  0.576700  0.917400  1.0  0.0724
  H  H13  1  0.567800  0.798800  0.140100  1.0  0.1055
  H  H14  1  0.721800  0.848900  0.134100  1.0  0.0949
  H  H15  1  0.780500  0.792000  0.020700  1.0  0.0937
  H  H16  1  0.685700  0.676500  0.916900  1.0  0.1082
  H  H17  1  0.488900  0.065700  0.884800  1.0  0.1025
  H  H18  1  0.423300  0.787600  0.917400  1.0  0.072
  H  H19  1  0.201200  0.769000  0.140100  1.0  0.1062
  H  H20  1  0.151100  0.872900  0.134100  1.0  0.095
  H  H21  1  0.208000  0.988500  0.020700  1.0  0.0935
  H  H22  1  0.323500  0.009200  0.916900  1.0  0.1097
  H  H23  1  0.576800  0.065700  0.615200  1.0  0.1019
  H  H24  1  0.364300  0.787600  0.582600  1.0  0.0722
  H  H25  1  0.567800  0.769000  0.359900  1.0  0.1054
  H  H26  1  0.721800  0.872900  0.365900  1.0  0.0949
  H  H27  1  0.780500  0.988500  0.479300  1.0  0.0938
  H  H28  1  0.685700  0.009200  0.583100  1.0  0.1093
  H  H29  1  0.488900  0.423200  0.615200  1.0  0.1023
  H  H30  1  0.423300  0.635700  0.582600  1.0  0.0736
  H  H31  1  0.201200  0.432200  0.359900  1.0  0.1036
  H  H32  1  0.151100  0.278200  0.365900  1.0  0.0948
  H  H33  1  0.208000  0.219500  0.479300  1.0  0.0936
  H  H34  1  0.323500  0.314300  0.583100  1.0  0.11
  H  H35  1  0.934300  0.511100  0.615200  1.0  0.1024
  H  H36  1  0.212400  0.576700  0.582600  1.0  0.0728
  H  H37  1  0.231000  0.798800  0.359900  1.0  0.1054
  H  H38  1  0.127100  0.848900  0.365900  1.0  0.0943
  H  H39  1  0.011500  0.792000  0.479300  1.0  0.0934
  H  H40  1  0.990800  0.676500  0.583100  1.0  0.1089
  H  H41  1  0.065700  0.576800  0.115200  1.0  0.1021
  H  H42  1  0.787600  0.364300  0.082600  1.0  0.074
  H  H43  1  0.769000  0.567800  0.859900  1.0  0.1033
  H  H44  1  0.872900  0.721800  0.865900  1.0  0.0956
  H  H45  1  0.988500  0.780500  0.979300  1.0  0.0924
  H  H46  1  0.009200  0.685700  0.083100  1.0  0.1094
  H  H47  1  0.423200  0.488900  0.115200  1.0  0.1021
  H  H48  1  0.635700  0.423300  0.082600  1.0  0.0723
  H  H49  1  0.432200  0.201200  0.859900  1.0  0.1043
  H  H50  1  0.278200  0.151100  0.865900  1.0  0.0936
  H  H51  1  0.219500  0.208000  0.979300  1.0  0.0935
  H  H52  1  0.314300  0.323500  0.083100  1.0  0.1095
  H  H53  1  0.511100  0.934300  0.115200  1.0  0.1023
  H  H54  1  0.576700  0.212400  0.082600  1.0  0.0721
  H  H55  1  0.798800  0.231000  0.859900  1.0  0.104
  H  H56  1  0.848900  0.127100  0.865900  1.0  0.0948
  H  H57  1  0.792000  0.011500  0.979300  1.0  0.0936
  H  H58  1  0.676500  0.990800  0.083100  1.0  0.1098
  H  H59  1  0.423200  0.934300  0.384800  1.0  0.103
  H  H60  1  0.635700  0.212400  0.417400  1.0  0.0718
  H  H61  1  0.432200  0.231000  0.640100  1.0  0.1048
  H  H62  1  0.278200  0.127100  0.634100  1.0  0.0948
  H  H63  1  0.219500  0.011500  0.520700  1.0  0.0936
  H  H64  1  0.314300  0.990800  0.416900  1.0  0.1094
  H  H65  1  0.511100  0.576800  0.384800  1.0  0.1024
  H  H66  1  0.576700  0.364300  0.417400  1.0  0.0737
  H  H67  1  0.798800  0.567800  0.640100  1.0  0.104
  H  H68  1  0.848900  0.721800  0.634100  1.0  0.0957
  H  H69  1  0.792000  0.780500  0.520700  1.0  0.0922
  H  H70  1  0.676500  0.685700  0.416900  1.0  0.1095
  H  H71  1  0.065700  0.488900  0.384800  1.0  0.103
  H  H72  1  0.787600  0.423300  0.417400  1.0  0.0723
  H  H73  1  0.769000  0.201200  0.640100  1.0  0.1047
  H  H74  1  0.872900  0.151100  0.634100  1.0  0.0948
  H  H75  1  0.988500  0.208000  0.520700  1.0  0.0936
  H  H76  1  0.009200  0.323500  0.416900  1.0  0.1091
  H  H77  1  0.171600  0.585800  0.750000  1.0  0.1079
  H  H78  1  0.414200  0.585800  0.750000  1.0  0.108
  H  H79  1  0.414200  0.828400  0.750000  1.0  0.1057
  H  H80  1  0.828400  0.414200  0.250000  1.0  0.1082
  H  H81  1  0.585800  0.414200  0.250000  1.0  0.1081
  H  H82  1  0.585800  0.171600  0.250000  1.0  0.1054
  C  C83  1  0.966000  0.456400  0.830900  1.0  -0.1054
  C  C84  1  0.060600  0.503500  0.830100  1.0  0.1455
  C  C85  1  0.189400  0.577900  0.943600  1.0  0.2118
  C  C86  1  0.174200  0.466200  0.031100  1.0  0.1101
  C  C87  1  0.183900  0.409100  0.095500  1.0  -0.1178
  C  C88  1  0.122000  0.317400  0.091300  1.0  -0.1147
  C  C89  1  0.051000  0.282000  0.023300  1.0  -0.1159
  C  C90  1  0.038700  0.337800  0.960500  1.0  -0.1674
  C  C91  1  0.101000  0.430400  0.965000  1.0  0.0753
  C  C92  1  0.543600  0.509600  0.830900  1.0  -0.1039
  C  C93  1  0.496500  0.557100  0.830100  1.0  0.1451
  C  C94  1  0.422100  0.611500  0.943600  1.0  0.2127
  C  C95  1  0.533800  0.708000  0.031100  1.0  0.1099
  C  C96  1  0.590900  0.774800  0.095500  1.0  -0.1187
  C  C97  1  0.682600  0.804600  0.091300  1.0  -0.1143
  C  C98  1  0.718000  0.769000  0.023300  1.0  -0.1137
  C  C99  1  0.662200  0.700900  0.960500  1.0  -0.1673
  C  C100  1  0.569600  0.670600  0.965000  1.0  0.0761
  C  C101  1  0.490400  0.034000  0.830900  1.0  -0.1047
  C  C102  1  0.442900  0.939400  0.830100  1.0  0.1463
  C  C103  1  0.388500  0.810600  0.943600  1.0  0.2118
  C  C104  1  0.292000  0.825800  0.031100  1.0  0.1108
  C  C105  1  0.225200  0.816100  0.095500  1.0  -0.1185
  C  C106  1  0.195400  0.878000  0.091300  1.0  -0.1148
  C  C107  1  0.231000  0.949000  0.023300  1.0  -0.1168
  C  C108  1  0.299100  0.961300  0.960500  1.0  -0.1635
  C  C109  1  0.329400  0.899000  0.965000  1.0  0.077
  C  C110  1  0.543600  0.034000  0.669100  1.0  -0.1039
  C  C111  1  0.496500  0.939400  0.669900  1.0  0.1457
  C  C112  1  0.422100  0.810600  0.556400  1.0  0.2119
  C  C113  1  0.533800  0.825800  0.468900  1.0  0.1111
  C  C114  1  0.590900  0.816100  0.404500  1.0  -0.1191
  C  C115  1  0.682600  0.878000  0.408700  1.0  -0.115
  C  C116  1  0.718000  0.949000  0.476700  1.0  -0.1148
  C  C117  1  0.662200  0.961300  0.539500  1.0  -0.1633
  C  C118  1  0.569600  0.899000  0.535000  1.0  0.0758
  C  C119  1  0.490400  0.456400  0.669100  1.0  -0.1051
  C  C120  1  0.442900  0.503500  0.669900  1.0  0.146
  C  C121  1  0.388500  0.577900  0.556400  1.0  0.2117
  C  C122  1  0.292000  0.466200  0.468900  1.0  0.1108
  C  C123  1  0.225200  0.409100  0.404500  1.0  -0.1176
  C  C124  1  0.195400  0.317400  0.408700  1.0  -0.1158
  C  C125  1  0.231000  0.282000  0.476700  1.0  -0.1156
  C  C126  1  0.299100  0.337800  0.539500  1.0  -0.1685
  C  C127  1  0.329400  0.430400  0.535000  1.0  0.075
  C  C128  1  0.966000  0.509600  0.669100  1.0  -0.1038
  C  C129  1  0.060600  0.557100  0.669900  1.0  0.1453
  C  C130  1  0.189400  0.611500  0.556400  1.0  0.2114
  C  C131  1  0.174200  0.708000  0.468900  1.0  0.1101
  C  C132  1  0.183900  0.774800  0.404500  1.0  -0.1191
  C  C133  1  0.122000  0.804600  0.408700  1.0  -0.1146
  C  C134  1  0.051000  0.769000  0.476700  1.0  -0.1159
  C  C135  1  0.038700  0.700900  0.539500  1.0  -0.1693
  C  C136  1  0.101000  0.670600  0.535000  1.0  0.0756
  C  C137  1  0.034000  0.543600  0.169100  1.0  -0.1047
  C  C138  1  0.939400  0.496500  0.169900  1.0  0.146
  C  C139  1  0.810600  0.422100  0.056400  1.0  0.2119
  C  C140  1  0.825800  0.533800  0.968900  1.0  0.1107
  C  C141  1  0.816100  0.590900  0.904500  1.0  -0.1176
  C  C142  1  0.878000  0.682600  0.908700  1.0  -0.1144
  C  C143  1  0.949000  0.718000  0.976700  1.0  -0.1127
  C  C144  1  0.961300  0.662200  0.039500  1.0  -0.1683
  C  C145  1  0.899000  0.569600  0.035000  1.0  0.0751
  C  C146  1  0.456400  0.490400  0.169100  1.0  -0.1038
  C  C147  1  0.503500  0.442900  0.169900  1.0  0.1454
  C  C148  1  0.577900  0.388500  0.056400  1.0  0.2108
  C  C149  1  0.466200  0.292000  0.968900  1.0  0.1099
  C  C150  1  0.409100  0.225200  0.904500  1.0  -0.1191
  C  C151  1  0.317400  0.195400  0.908700  1.0  -0.1149
  C  C152  1  0.282000  0.231000  0.976700  1.0  -0.1161
  C  C153  1  0.337800  0.299100  0.039500  1.0  -0.1669
  C  C154  1  0.430400  0.329400  0.035000  1.0  0.0758
  C  C155  1  0.509600  0.966000  0.169100  1.0  -0.1044
  C  C156  1  0.557100  0.060600  0.169900  1.0  0.1455
  C  C157  1  0.611500  0.189400  0.056400  1.0  0.2115
  C  C158  1  0.708000  0.174200  0.968900  1.0  0.1113
  C  C159  1  0.774800  0.183900  0.904500  1.0  -0.1187
  C  C160  1  0.804600  0.122000  0.908700  1.0  -0.1153
  C  C161  1  0.769000  0.051000  0.976700  1.0  -0.1145
  C  C162  1  0.700900  0.038700  0.039500  1.0  -0.164
  C  C163  1  0.670600  0.101000  0.035000  1.0  0.0757
  C  C164  1  0.456400  0.966000  0.330900  1.0  -0.105
  C  C165  1  0.503500  0.060600  0.330100  1.0  0.1461
  C  C166  1  0.577900  0.189400  0.443600  1.0  0.2118
  C  C167  1  0.466200  0.174200  0.531100  1.0  0.1115
  C  C168  1  0.409100  0.183900  0.595500  1.0  -0.118
  C  C169  1  0.317400  0.122000  0.591300  1.0  -0.1144
  C  C170  1  0.282000  0.051000  0.523300  1.0  -0.116
  C  C171  1  0.337800  0.038700  0.460500  1.0  -0.1626
  C  C172  1  0.430400  0.101000  0.465000  1.0  0.0765
  C  C173  1  0.509600  0.543600  0.330900  1.0  -0.1055
  C  C174  1  0.557100  0.496500  0.330100  1.0  0.1456
  C  C175  1  0.611500  0.422100  0.443600  1.0  0.212
  C  C176  1  0.708000  0.533800  0.531100  1.0  0.1101
  C  C177  1  0.774800  0.590900  0.595500  1.0  -0.1178
  C  C178  1  0.804600  0.682600  0.591300  1.0  -0.1137
  C  C179  1  0.769000  0.718000  0.523300  1.0  -0.1149
  C  C180  1  0.700900  0.662200  0.460500  1.0  -0.1671
  C  C181  1  0.670600  0.569600  0.465000  1.0  0.076
  C  C182  1  0.034000  0.490400  0.330900  1.0  -0.1043
  C  C183  1  0.939400  0.442900  0.330100  1.0  0.1451
  C  C184  1  0.810600  0.388500  0.443600  1.0  0.2118
  C  C185  1  0.825800  0.292000  0.531100  1.0  0.1095
  C  C186  1  0.816100  0.225200  0.595500  1.0  -0.1187
  C  C187  1  0.878000  0.195400  0.591300  1.0  -0.1149
  C  C188  1  0.949000  0.231000  0.523300  1.0  -0.1143
  C  C189  1  0.961300  0.299100  0.460500  1.0  -0.1654
  C  C190  1  0.899000  0.329400  0.465000  1.0  0.0763
  C  C191  1  0.817700  0.408850  0.750000  1.0  0.6528
  C  C192  1  0.919200  0.459600  0.750000  1.0  -0.1661
  C  C193  1  0.108300  0.554150  0.750000  1.0  -0.2035
  C  C194  1  0.591150  0.408850  0.750000  1.0  0.6534
  C  C195  1  0.540400  0.459600  0.750000  1.0  -0.1659
  C  C196  1  0.445850  0.554150  0.750000  1.0  -0.2055
  C  C197  1  0.591150  0.182300  0.750000  1.0  0.6559
  C  C198  1  0.540400  0.080800  0.750000  1.0  -0.1647
  C  C199  1  0.445850  0.891700  0.750000  1.0  -0.2028
  C  C200  1  0.182300  0.591150  0.250000  1.0  0.6542
  C  C201  1  0.080800  0.540400  0.250000  1.0  -0.1659
  C  C202  1  0.891700  0.445850  0.250000  1.0  -0.206
  C  C203  1  0.408850  0.591150  0.250000  1.0  0.6533
  C  C204  1  0.459600  0.540400  0.250000  1.0  -0.1662
  C  C205  1  0.554150  0.445850  0.250000  1.0  -0.2039
  C  C206  1  0.408850  0.817700  0.250000  1.0  0.6555
  C  C207  1  0.459600  0.919200  0.250000  1.0  -0.1647
  C  C208  1  0.554150  0.108300  0.250000  1.0  -0.2025
  N  N209  1  0.111900  0.503800  0.911600  1.0  -0.0188
  N  N210  1  0.228300  0.559800  0.014800  1.0  -0.3646
  N  N211  1  0.496200  0.608100  0.911600  1.0  -0.0177
  N  N212  1  0.440200  0.668500  0.014800  1.0  -0.3645
  N  N213  1  0.391900  0.888100  0.911600  1.0  -0.0191
  N  N214  1  0.331500  0.771700  0.014800  1.0  -0.3648
  N  N215  1  0.496200  0.888100  0.588400  1.0  -0.0187
  N  N216  1  0.440200  0.771700  0.485200  1.0  -0.3641
  N  N217  1  0.391900  0.503800  0.588400  1.0  -0.0193
  N  N218  1  0.331500  0.559800  0.485200  1.0  -0.3643
  N  N219  1  0.111900  0.608100  0.588400  1.0  -0.0187
  N  N220  1  0.228300  0.668500  0.485200  1.0  -0.3644
  N  N221  1  0.888100  0.496200  0.088400  1.0  -0.0195
  N  N222  1  0.771700  0.440200  0.985200  1.0  -0.3647
  N  N223  1  0.503800  0.391900  0.088400  1.0  -0.0179
  N  N224  1  0.559800  0.331500  0.985200  1.0  -0.364
  N  N225  1  0.608100  0.111900  0.088400  1.0  -0.019
  N  N226  1  0.668500  0.228300  0.985200  1.0  -0.3651
  N  N227  1  0.503800  0.111900  0.411600  1.0  -0.0191
  N  N228  1  0.559800  0.228300  0.514800  1.0  -0.3661
  N  N229  1  0.608100  0.496200  0.411600  1.0  -0.0193
  N  N230  1  0.668500  0.440200  0.514800  1.0  -0.3647
  N  N231  1  0.888100  0.391900  0.411600  1.0  -0.0172
  N  N232  1  0.771700  0.331500  0.514800  1.0  -0.3639
  O  O233  1  0.779600  0.424500  0.681100  1.0  -0.5981
  O  O234  1  0.575500  0.355100  0.681100  1.0  -0.5986
  O  O235  1  0.644900  0.220400  0.681100  1.0  -0.5986
  O  O236  1  0.575500  0.220400  0.818900  1.0  -0.598
  O  O237  1  0.644900  0.424500  0.818900  1.0  -0.599
  O  O238  1  0.779600  0.355100  0.818900  1.0  -0.5987
  O  O239  1  0.220400  0.575500  0.318900  1.0  -0.599
  O  O240  1  0.424500  0.644900  0.318900  1.0  -0.599
  O  O241  1  0.355100  0.779600  0.318900  1.0  -0.5978
  O  O242  1  0.424500  0.779600  0.181100  1.0  -0.5985
  O  O243  1  0.355100  0.575500  0.181100  1.0  -0.5985
  O  O244  1  0.220400  0.644900  0.181100  1.0  -0.5987
