# generated using pymatgen
data_Co2H39C63(N2O)6
_symmetry_space_group_name_H-M   'P 1'
_cell_length_a   17.03300000
_cell_length_b   17.03300000
_cell_length_c   13.92800000
_cell_angle_alpha   90.00000000
_cell_angle_beta   90.00000000
_cell_angle_gamma   120.00000000
_symmetry_Int_Tables_number   1
_chemical_formula_structural   Co2H39C63(N2O)6
_chemical_formula_sum   'Co4 H78 C126 N24 O12'
_cell_volume   3499.46522868
_cell_formula_units_Z   2
loop_
 _symmetry_equiv_pos_site_id
 _symmetry_equiv_pos_as_xyz
  1  'x, y, z'
loop_
 _atom_site_type_symbol
 _atom_site_label
 _atom_site_symmetry_multiplicity
 _atom_site_fract_x
 _atom_site_fract_y
 _atom_site_fract_z
 _atom_site_occupancy
 _atom_site_charge
  Co  Co1  1  0.666667  0.333333  0.298200  1.0  0.8524
  Co  Co2  1  0.333333  0.666667  0.798200  1.0  0.8524
  Co  Co3  1  0.333333  0.666667  0.503280  1.0  0.9233
  Co  Co4  1  0.666667  0.333333  0.003280  1.0  0.9233
  H  H5  1  0.782600  0.411800  0.491100  1.0  0.0593
  H  H6  1  0.783500  0.221900  0.241700  1.0  0.0907
  H  H7  1  0.875800  0.156600  0.279300  1.0  0.0735
  H  H8  1  0.004400  0.327500  0.485000  1.0  0.0811
  H  H9  1  0.069700  0.498700  0.515100  1.0  0.0876
  H  H10  1  0.830900  0.422500  0.653400  1.0  0.1047
  H  H11  1  0.001000  0.233100  0.367400  1.0  0.0864
  H  H12  1  0.062400  0.571900  0.788600  1.0  0.0848
  H  H13  1  0.789500  0.359600  0.818500  1.0  0.0947
  H  H14  1  0.030900  0.679300  0.839300  1.0  0.1067
  H  H15  1  0.770300  0.566300  0.035500  1.0  0.0755
  H  H16  1  0.013600  0.772100  0.954200  1.0  0.078
  H  H17  1  0.896100  0.706500  0.072200  1.0  0.1045
  H  H18  1  0.588200  0.370800  0.491100  1.0  0.0603
  H  H19  1  0.778100  0.561600  0.241700  1.0  0.0896
  H  H20  1  0.843400  0.719200  0.279300  1.0  0.0739
  H  H21  1  0.672500  0.676900  0.485000  1.0  0.0808
  H  H22  1  0.501300  0.571000  0.515100  1.0  0.0883
  H  H23  1  0.577500  0.408400  0.653400  1.0  0.1036
  H  H24  1  0.766900  0.767900  0.367400  1.0  0.0825
  H  H25  1  0.428100  0.490500  0.788600  1.0  0.085
  H  H26  1  0.640400  0.429900  0.818500  1.0  0.0933
  H  H27  1  0.320700  0.351600  0.839300  1.0  0.1073
  H  H28  1  0.433700  0.204000  0.035500  1.0  0.0768
  H  H29  1  0.227900  0.241500  0.954200  1.0  0.0786
  H  H30  1  0.293500  0.189600  0.072200  1.0  0.102
  H  H31  1  0.629200  0.217400  0.491100  1.0  0.0591
  H  H32  1  0.438400  0.216500  0.241700  1.0  0.0908
  H  H33  1  0.280800  0.124200  0.279300  1.0  0.0746
  H  H34  1  0.323100  0.995600  0.485000  1.0  0.0815
  H  H35  1  0.429000  0.930300  0.515100  1.0  0.0879
  H  H36  1  0.591600  0.169100  0.653400  1.0  0.1033
  H  H37  1  0.232100  0.999000  0.367400  1.0  0.083
  H  H38  1  0.509500  0.937600  0.788600  1.0  0.0847
  H  H39  1  0.570100  0.210500  0.818500  1.0  0.0937
  H  H40  1  0.648400  0.969100  0.839300  1.0  0.1064
  H  H41  1  0.796000  0.229700  0.035500  1.0  0.0778
  H  H42  1  0.758500  0.986400  0.954200  1.0  0.0784
  H  H43  1  0.810400  0.103900  0.072200  1.0  0.1014
  H  H44  1  0.411800  0.782600  0.991100  1.0  0.0593
  H  H45  1  0.221900  0.783500  0.741700  1.0  0.0915
  H  H46  1  0.156600  0.875800  0.779300  1.0  0.0745
  H  H47  1  0.327500  0.004400  0.985000  1.0  0.0808
  H  H48  1  0.498700  0.069700  0.015100  1.0  0.0877
  H  H49  1  0.422500  0.830900  0.153400  1.0  0.1021
  H  H50  1  0.233100  0.001000  0.867400  1.0  0.0838
  H  H51  1  0.571900  0.062400  0.288600  1.0  0.0847
  H  H52  1  0.359600  0.789500  0.318500  1.0  0.0939
  H  H53  1  0.679300  0.030900  0.339300  1.0  0.1067
  H  H54  1  0.566300  0.770300  0.535500  1.0  0.0775
  H  H55  1  0.772100  0.013600  0.454200  1.0  0.078
  H  H56  1  0.706500  0.896100  0.572200  1.0  0.1019
  H  H57  1  0.370800  0.588200  0.991100  1.0  0.0593
  H  H58  1  0.561600  0.778100  0.741700  1.0  0.0913
  H  H59  1  0.719200  0.843400  0.779300  1.0  0.0739
  H  H60  1  0.676900  0.672500  0.985000  1.0  0.0799
  H  H61  1  0.571000  0.501300  0.015100  1.0  0.0878
  H  H62  1  0.408400  0.577500  0.153400  1.0  0.1042
  H  H63  1  0.767900  0.766900  0.867400  1.0  0.0878
  H  H64  1  0.490500  0.428100  0.288600  1.0  0.0852
  H  H65  1  0.429900  0.640400  0.318500  1.0  0.0943
  H  H66  1  0.351600  0.320700  0.339300  1.0  0.1066
  H  H67  1  0.204000  0.433700  0.535500  1.0  0.0747
  H  H68  1  0.241500  0.227900  0.454200  1.0  0.0787
  H  H69  1  0.189600  0.293500  0.572200  1.0  0.1042
  H  H70  1  0.217400  0.629200  0.991100  1.0  0.0597
  H  H71  1  0.216500  0.438400  0.741700  1.0  0.0895
  H  H72  1  0.124200  0.280800  0.779300  1.0  0.0734
  H  H73  1  0.995600  0.323100  0.985000  1.0  0.0808
  H  H74  1  0.930300  0.429000  0.015100  1.0  0.0879
  H  H75  1  0.169100  0.591600  0.153400  1.0  0.1035
  H  H76  1  0.999000  0.232100  0.867400  1.0  0.0826
  H  H77  1  0.937600  0.509500  0.288600  1.0  0.0847
  H  H78  1  0.210500  0.570100  0.318500  1.0  0.0934
  H  H79  1  0.969100  0.648400  0.339300  1.0  0.1061
  H  H80  1  0.229700  0.796000  0.535500  1.0  0.0766
  H  H81  1  0.986400  0.758500  0.454200  1.0  0.0775
  H  H82  1  0.103900  0.810400  0.572200  1.0  0.1018
  C  C83  1  0.810000  0.384000  0.459000  1.0  0.1708
  C  C84  1  0.832400  0.298900  0.365800  1.0  0.0742
  C  C85  1  0.823300  0.238900  0.293300  1.0  -0.1095
  C  C86  1  0.908000  0.336700  0.430100  1.0  0.217
  C  C87  1  0.940900  0.447100  0.569900  1.0  0.1382
  C  C88  1  0.885000  0.208300  0.311500  1.0  -0.0796
  C  C89  1  0.961300  0.307900  0.436300  1.0  -0.1855
  C  C90  1  0.037600  0.496300  0.570100  1.0  -0.0368
  C  C91  1  0.893800  0.450800  0.653100  1.0  -0.1479
  C  C92  1  0.955300  0.247800  0.371200  1.0  -0.0914
  C  C93  1  0.081900  0.539200  0.650200  1.0  -0.1602
  C  C94  1  0.941600  0.495600  0.730300  1.0  0.1764
  C  C95  1  0.184200  0.591500  0.654400  1.0  0.6351
  C  C96  1  0.032000  0.540400  0.733600  1.0  -0.1707
  C  C97  1  0.811800  0.417600  0.843400  1.0  0.1727
  C  C98  1  0.900200  0.561000  0.872300  1.0  0.0856
  C  C99  1  0.829500  0.528100  0.935200  1.0  0.202
  C  C100  1  0.980300  0.657500  0.878900  1.0  -0.14
  C  C101  1  0.824000  0.586300  0.001500  1.0  -0.0885
  C  C102  1  0.970600  0.710800  0.950500  1.0  -0.1106
  C  C103  1  0.895800  0.673500  0.018900  1.0  -0.1423
  C  C104  1  0.616000  0.426000  0.459000  1.0  0.1722
  C  C105  1  0.701100  0.533500  0.365800  1.0  0.0722
  C  C106  1  0.761100  0.584400  0.293300  1.0  -0.1095
  C  C107  1  0.663300  0.571300  0.430100  1.0  0.2204
  C  C108  1  0.552900  0.493800  0.569900  1.0  0.139
  C  C109  1  0.791700  0.676700  0.311500  1.0  -0.0826
  C  C110  1  0.692100  0.653400  0.436300  1.0  -0.1909
  C  C111  1  0.503700  0.541300  0.570100  1.0  -0.0363
  C  C112  1  0.549200  0.443000  0.653100  1.0  -0.1443
  C  C113  1  0.752200  0.707500  0.371200  1.0  -0.0923
  C  C114  1  0.460800  0.542700  0.650200  1.0  -0.1613
  C  C115  1  0.504400  0.446000  0.730300  1.0  0.1765
  C  C116  1  0.408500  0.592700  0.654400  1.0  0.6324
  C  C117  1  0.459600  0.491600  0.733600  1.0  -0.1687
  C  C118  1  0.582400  0.394200  0.843400  1.0  0.1723
  C  C119  1  0.439000  0.339200  0.872300  1.0  0.081
  C  C120  1  0.471900  0.301400  0.935200  1.0  0.2021
  C  C121  1  0.342500  0.322800  0.878900  1.0  -0.1396
  C  C122  1  0.413700  0.237700  0.001500  1.0  -0.0897
  C  C123  1  0.289200  0.259800  0.950500  1.0  -0.1184
  C  C124  1  0.326500  0.222300  0.018900  1.0  -0.1439
  C  C125  1  0.574000  0.190000  0.459000  1.0  0.1706
  C  C126  1  0.466500  0.167600  0.365800  1.0  0.0732
  C  C127  1  0.415600  0.176700  0.293300  1.0  -0.1084
  C  C128  1  0.428700  0.092000  0.430100  1.0  0.2179
  C  C129  1  0.506200  0.059100  0.569900  1.0  0.1389
  C  C130  1  0.323300  0.115000  0.311500  1.0  -0.0808
  C  C131  1  0.346600  0.038700  0.436300  1.0  -0.1853
  C  C132  1  0.458700  0.962400  0.570100  1.0  -0.0359
  C  C133  1  0.557000  0.106200  0.653100  1.0  -0.1443
  C  C134  1  0.292500  0.044700  0.371200  1.0  -0.097
  C  C135  1  0.457300  0.918100  0.650200  1.0  -0.16
  C  C136  1  0.554000  0.058400  0.730300  1.0  0.1768
  C  C137  1  0.407300  0.815800  0.654400  1.0  0.6359
  C  C138  1  0.508400  0.968000  0.733600  1.0  -0.1687
  C  C139  1  0.605800  0.188200  0.843400  1.0  0.1725
  C  C140  1  0.660800  0.099800  0.872300  1.0  0.0863
  C  C141  1  0.698600  0.170500  0.935200  1.0  0.2028
  C  C142  1  0.677200  0.019700  0.878900  1.0  -0.1377
  C  C143  1  0.762300  0.176000  0.001500  1.0  -0.0848
  C  C144  1  0.740200  0.029400  0.950500  1.0  -0.1138
  C  C145  1  0.777700  0.104200  0.018900  1.0  -0.1435
  C  C146  1  0.384000  0.810000  0.959000  1.0  0.1708
  C  C147  1  0.298900  0.832400  0.865800  1.0  0.0738
  C  C148  1  0.238900  0.823300  0.793300  1.0  -0.109
  C  C149  1  0.336700  0.908000  0.930100  1.0  0.2182
  C  C150  1  0.447100  0.940900  0.069900  1.0  0.1386
  C  C151  1  0.208300  0.885000  0.811500  1.0  -0.0813
  C  C152  1  0.307900  0.961300  0.936300  1.0  -0.1871
  C  C153  1  0.496300  0.037600  0.070100  1.0  -0.0362
  C  C154  1  0.450800  0.893800  0.153100  1.0  -0.145
  C  C155  1  0.247800  0.955300  0.871200  1.0  -0.0972
  C  C156  1  0.539200  0.081900  0.150200  1.0  -0.1598
  C  C157  1  0.495600  0.941600  0.230300  1.0  0.1768
  C  C158  1  0.591500  0.184200  0.154400  1.0  0.6369
  C  C159  1  0.540400  0.032000  0.233600  1.0  -0.1684
  C  C160  1  0.417600  0.811800  0.343400  1.0  0.1735
  C  C161  1  0.561000  0.900200  0.372300  1.0  0.0864
  C  C162  1  0.528100  0.829500  0.435200  1.0  0.2027
  C  C163  1  0.657500  0.980300  0.378900  1.0  -0.1391
  C  C164  1  0.586300  0.824000  0.501500  1.0  -0.085
  C  C165  1  0.710800  0.970600  0.450500  1.0  -0.1144
  C  C166  1  0.673500  0.895800  0.518900  1.0  -0.1431
  C  C167  1  0.426000  0.616000  0.959000  1.0  0.1711
  C  C168  1  0.533500  0.701100  0.865800  1.0  0.0745
  C  C169  1  0.584400  0.761100  0.793300  1.0  -0.1089
  C  C170  1  0.571300  0.663300  0.930100  1.0  0.2171
  C  C171  1  0.493800  0.552900  0.069900  1.0  0.1386
  C  C172  1  0.676700  0.791700  0.811500  1.0  -0.0803
  C  C173  1  0.653400  0.692100  0.936300  1.0  -0.1861
  C  C174  1  0.541300  0.503700  0.070100  1.0  -0.0362
  C  C175  1  0.443000  0.549200  0.153100  1.0  -0.1482
  C  C176  1  0.707500  0.752200  0.871200  1.0  -0.0918
  C  C177  1  0.542700  0.460800  0.150200  1.0  -0.1604
  C  C178  1  0.446000  0.504400  0.230300  1.0  0.1764
  C  C179  1  0.592700  0.408500  0.154400  1.0  0.6343
  C  C180  1  0.491600  0.459600  0.233600  1.0  -0.1707
  C  C181  1  0.394200  0.582400  0.343400  1.0  0.1725
  C  C182  1  0.339200  0.439000  0.372300  1.0  0.0853
  C  C183  1  0.301400  0.471900  0.435200  1.0  0.2016
  C  C184  1  0.322800  0.342500  0.378900  1.0  -0.1396
  C  C185  1  0.237700  0.413700  0.501500  1.0  -0.0877
  C  C186  1  0.259800  0.289200  0.450500  1.0  -0.1111
  C  C187  1  0.222300  0.326500  0.518900  1.0  -0.1432
  C  C188  1  0.190000  0.574000  0.959000  1.0  0.1714
  C  C189  1  0.167600  0.466500  0.865800  1.0  0.0724
  C  C190  1  0.176700  0.415600  0.793300  1.0  -0.1101
  C  C191  1  0.092000  0.428700  0.930100  1.0  0.2203
  C  C192  1  0.059100  0.506200  0.069900  1.0  0.1389
  C  C193  1  0.115000  0.323300  0.811500  1.0  -0.0814
  C  C194  1  0.038700  0.346600  0.936300  1.0  -0.1897
  C  C195  1  0.962400  0.458700  0.070100  1.0  -0.0366
  C  C196  1  0.106200  0.557000  0.153100  1.0  -0.1447
  C  C197  1  0.044700  0.292500  0.871200  1.0  -0.0947
  C  C198  1  0.918100  0.457300  0.150200  1.0  -0.1614
  C  C199  1  0.058400  0.554000  0.230300  1.0  0.1763
  C  C200  1  0.815800  0.407300  0.154400  1.0  0.6326
  C  C201  1  0.968000  0.508400  0.233600  1.0  -0.169
  C  C202  1  0.188200  0.605800  0.343400  1.0  0.1725
  C  C203  1  0.099800  0.660800  0.372300  1.0  0.0814
  C  C204  1  0.170500  0.698600  0.435200  1.0  0.202
  C  C205  1  0.019700  0.677200  0.378900  1.0  -0.1392
  C  C206  1  0.176000  0.762300  0.501500  1.0  -0.09
  C  C207  1  0.029400  0.740200  0.450500  1.0  -0.1176
  C  C208  1  0.104200  0.777700  0.518900  1.0  -0.1441
  N  N209  1  0.773300  0.334900  0.385700  1.0  -0.3577
  N  N210  1  0.889100  0.394400  0.488600  1.0  -0.0773
  N  N211  1  0.890900  0.493100  0.813600  1.0  -0.0685
  N  N212  1  0.229700  0.669500  0.415000  1.0  -0.4235
  N  N213  1  0.665100  0.438400  0.385700  1.0  -0.3582
  N  N214  1  0.605600  0.494700  0.488600  1.0  -0.079
  N  N215  1  0.506900  0.397800  0.813600  1.0  -0.0669
  N  N216  1  0.330500  0.560200  0.415000  1.0  -0.4231
  N  N217  1  0.561600  0.226700  0.385700  1.0  -0.3596
  N  N218  1  0.505300  0.110900  0.488600  1.0  -0.0782
  N  N219  1  0.602200  0.109100  0.813600  1.0  -0.067
  N  N220  1  0.439800  0.770300  0.415000  1.0  -0.4258
  N  N221  1  0.334900  0.773300  0.885700  1.0  -0.3576
  N  N222  1  0.394400  0.889100  0.988600  1.0  -0.0787
  N  N223  1  0.493100  0.890900  0.313600  1.0  -0.0672
  N  N224  1  0.669500  0.229700  0.915000  1.0  -0.4256
  N  N225  1  0.438400  0.665100  0.885700  1.0  -0.3582
  N  N226  1  0.494700  0.605600  0.988600  1.0  -0.0772
  N  N227  1  0.397800  0.506900  0.313600  1.0  -0.0686
  N  N228  1  0.560200  0.330500  0.915000  1.0  -0.4228
  N  N229  1  0.226700  0.561600  0.885700  1.0  -0.3587
  N  N230  1  0.110900  0.505300  0.988600  1.0  -0.0787
  N  N231  1  0.109100  0.602200  0.313600  1.0  -0.0668
  N  N232  1  0.770300  0.439800  0.915000  1.0  -0.4231
  O  O233  1  0.223100  0.576900  0.580100  1.0  -0.6154
  O  O234  1  0.220100  0.644500  0.718200  1.0  -0.5763
  O  O235  1  0.423100  0.646200  0.580100  1.0  -0.6149
  O  O236  1  0.355500  0.575600  0.718200  1.0  -0.5756
  O  O237  1  0.353800  0.776900  0.580100  1.0  -0.615
  O  O238  1  0.424400  0.779900  0.718200  1.0  -0.5762
  O  O239  1  0.576900  0.223100  0.080100  1.0  -0.615
  O  O240  1  0.644500  0.220100  0.218200  1.0  -0.576
  O  O241  1  0.646200  0.423100  0.080100  1.0  -0.615
  O  O242  1  0.575600  0.355500  0.218200  1.0  -0.5759
  O  O243  1  0.776900  0.353800  0.080100  1.0  -0.6149
  O  O244  1  0.779900  0.424400  0.218200  1.0  -0.5758
