# generated using pymatgen
data_Mn2H39C63(N2O)6
_symmetry_space_group_name_H-M   'P 1'
_cell_length_a   17.48500000
_cell_length_b   17.48500000
_cell_length_c   14.01900000
_cell_angle_alpha   90.00000000
_cell_angle_beta   90.00000000
_cell_angle_gamma   120.00000000
_symmetry_Int_Tables_number   1
_chemical_formula_structural   Mn2H39C63(N2O)6
_chemical_formula_sum   'Mn4 H78 C126 N24 O12'
_cell_volume   3711.75191041
_cell_formula_units_Z   2
loop_
 _symmetry_equiv_pos_site_id
 _symmetry_equiv_pos_as_xyz
  1  'x, y, z'
loop_
 _atom_site_type_symbol
 _atom_site_label
 _atom_site_symmetry_multiplicity
 _atom_site_fract_x
 _atom_site_fract_y
 _atom_site_fract_z
 _atom_site_occupancy
 _atom_site_charge
  Mn  Mn1  1  0.666667  0.333333  0.601470  1.0  0.9703
  Mn  Mn2  1  0.666667  0.333333  0.898530  1.0  0.9702
  Mn  Mn3  1  0.333333  0.666667  0.398530  1.0  0.9702
  Mn  Mn4  1  0.333333  0.666667  0.101470  1.0  0.9703
  H  H5  1  0.495700  0.428400  0.885500  1.0  0.1014
  H  H6  1  0.424500  0.630800  0.908800  1.0  0.0899
  H  H7  1  0.351400  0.327000  0.936800  1.0  0.1167
  H  H8  1  0.247400  0.238800  0.049600  1.0  0.087
  H  H9  1  0.184700  0.295800  0.150400  1.0  0.0955
  H  H10  1  0.217800  0.441100  0.138300  1.0  0.1104
  H  H11  1  0.571600  0.067300  0.885500  1.0  0.1009
  H  H12  1  0.369200  0.793700  0.908800  1.0  0.0893
  H  H13  1  0.673000  0.024400  0.936800  1.0  0.1167
  H  H14  1  0.761200  0.008600  0.049600  1.0  0.0864
  H  H15  1  0.704200  0.888900  0.150400  1.0  0.0952
  H  H16  1  0.558900  0.776700  0.138300  1.0  0.1115
  H  H17  1  0.932700  0.504300  0.885500  1.0  0.1008
  H  H18  1  0.206300  0.575500  0.908800  1.0  0.0891
  H  H19  1  0.975600  0.648600  0.936800  1.0  0.1163
  H  H20  1  0.991400  0.752600  0.049600  1.0  0.0864
  H  H21  1  0.111100  0.815300  0.150400  1.0  0.0951
  H  H22  1  0.223300  0.782200  0.138300  1.0  0.112
  H  H23  1  0.571600  0.504300  0.614500  1.0  0.1013
  H  H24  1  0.369200  0.575500  0.591200  1.0  0.0892
  H  H25  1  0.673000  0.648600  0.563200  1.0  0.1164
  H  H26  1  0.761200  0.752600  0.450400  1.0  0.0854
  H  H27  1  0.704200  0.815300  0.349600  1.0  0.0948
  H  H28  1  0.558900  0.782200  0.361700  1.0  0.1125
  H  H29  1  0.932700  0.428400  0.614500  1.0  0.1008
  H  H30  1  0.206300  0.630800  0.591200  1.0  0.0899
  H  H31  1  0.975600  0.327000  0.563200  1.0  0.1163
  H  H32  1  0.991400  0.238800  0.450400  1.0  0.0871
  H  H33  1  0.111100  0.295800  0.349600  1.0  0.0947
  H  H34  1  0.223300  0.441100  0.361700  1.0  0.1116
  H  H35  1  0.495700  0.067300  0.614500  1.0  0.1014
  H  H36  1  0.424500  0.793700  0.591200  1.0  0.09
  H  H37  1  0.351400  0.024400  0.563200  1.0  0.1157
  H  H38  1  0.247400  0.008600  0.450400  1.0  0.0874
  H  H39  1  0.184700  0.888900  0.349600  1.0  0.0943
  H  H40  1  0.217800  0.776700  0.361700  1.0  0.1133
  H  H41  1  0.504300  0.571600  0.114500  1.0  0.1012
  H  H42  1  0.575500  0.369200  0.091200  1.0  0.0903
  H  H43  1  0.648600  0.673000  0.063200  1.0  0.1165
  H  H44  1  0.752600  0.761200  0.950400  1.0  0.0872
  H  H45  1  0.815300  0.704200  0.849600  1.0  0.0959
  H  H46  1  0.782200  0.558900  0.861700  1.0  0.1118
  H  H47  1  0.428400  0.932700  0.114500  1.0  0.1017
  H  H48  1  0.630800  0.206300  0.091200  1.0  0.0899
  H  H49  1  0.327000  0.975600  0.063200  1.0  0.1156
  H  H50  1  0.238800  0.991400  0.950400  1.0  0.0868
  H  H51  1  0.295800  0.111100  0.849600  1.0  0.0947
  H  H52  1  0.441100  0.223300  0.861700  1.0  0.1131
  H  H53  1  0.067300  0.495700  0.114500  1.0  0.1013
  H  H54  1  0.793700  0.424500  0.091200  1.0  0.0891
  H  H55  1  0.024400  0.351400  0.063200  1.0  0.1164
  H  H56  1  0.008600  0.247400  0.950400  1.0  0.0854
  H  H57  1  0.888900  0.184700  0.849600  1.0  0.0944
  H  H58  1  0.776700  0.217800  0.861700  1.0  0.1122
  H  H59  1  0.428400  0.495700  0.385500  1.0  0.1013
  H  H60  1  0.630800  0.424500  0.408800  1.0  0.0891
  H  H61  1  0.327000  0.351400  0.436800  1.0  0.1164
  H  H62  1  0.238800  0.247400  0.549600  1.0  0.0876
  H  H63  1  0.295800  0.184700  0.650400  1.0  0.0945
  H  H64  1  0.441100  0.217800  0.638300  1.0  0.1137
  H  H65  1  0.067300  0.571600  0.385500  1.0  0.1011
  H  H66  1  0.793700  0.369200  0.408800  1.0  0.09
  H  H67  1  0.024400  0.673000  0.436800  1.0  0.1166
  H  H68  1  0.008600  0.761200  0.549600  1.0  0.0868
  H  H69  1  0.888900  0.704200  0.650400  1.0  0.0955
  H  H70  1  0.776700  0.558900  0.638300  1.0  0.1116
  H  H71  1  0.504300  0.932700  0.385500  1.0  0.1014
  H  H72  1  0.575500  0.206300  0.408800  1.0  0.0892
  H  H73  1  0.648600  0.975600  0.436800  1.0  0.1163
  H  H74  1  0.752600  0.991400  0.549600  1.0  0.0866
  H  H75  1  0.815300  0.111100  0.650400  1.0  0.095
  H  H76  1  0.782200  0.223300  0.638300  1.0  0.1118
  H  H77  1  0.419600  0.580400  0.750000  1.0  0.1047
  H  H78  1  0.419600  0.839200  0.750000  1.0  0.1033
  H  H79  1  0.160800  0.580400  0.750000  1.0  0.1049
  H  H80  1  0.580400  0.419600  0.250000  1.0  0.1052
  H  H81  1  0.580400  0.160800  0.250000  1.0  0.1032
  H  H82  1  0.839200  0.419600  0.250000  1.0  0.1051
  C  C83  1  0.495400  0.458600  0.831000  1.0  -0.1465
  C  C84  1  0.449500  0.503300  0.830000  1.0  0.1884
  C  C85  1  0.393000  0.575700  0.937800  1.0  0.2039
  C  C86  1  0.345000  0.436400  0.970200  1.0  0.0642
  C  C87  1  0.324800  0.349600  0.976400  1.0  -0.1409
  C  C88  1  0.263400  0.298000  0.044100  1.0  -0.0943
  C  C89  1  0.224800  0.332300  0.104500  1.0  -0.1089
  C  C90  1  0.244200  0.418600  0.098200  1.0  -0.1439
  C  C91  1  0.305100  0.470800  0.029300  1.0  0.1475
  C  C92  1  0.541400  0.036800  0.831000  1.0  -0.1454
  C  C93  1  0.496700  0.946200  0.830000  1.0  0.1887
  C  C94  1  0.424300  0.817300  0.937800  1.0  0.2058
  C  C95  1  0.563600  0.908600  0.970200  1.0  0.0649
  C  C96  1  0.650400  0.975200  0.976400  1.0  -0.1374
  C  C97  1  0.702000  0.965400  0.044100  1.0  -0.0949
  C  C98  1  0.667700  0.892500  0.104500  1.0  -0.1103
  C  C99  1  0.581400  0.825600  0.098200  1.0  -0.142
  C  C100  1  0.529200  0.834300  0.029300  1.0  0.149
  C  C101  1  0.963200  0.504600  0.831000  1.0  -0.1443
  C  C102  1  0.053800  0.550500  0.830000  1.0  0.1886
  C  C103  1  0.182700  0.607000  0.937800  1.0  0.2048
  C  C104  1  0.091400  0.655000  0.970200  1.0  0.0645
  C  C105  1  0.024800  0.675200  0.976400  1.0  -0.1378
  C  C106  1  0.034600  0.736600  0.044100  1.0  -0.093
  C  C107  1  0.107500  0.775200  0.104500  1.0  -0.1118
  C  C108  1  0.174400  0.755800  0.098200  1.0  -0.1462
  C  C109  1  0.165700  0.694900  0.029300  1.0  0.1488
  C  C110  1  0.541400  0.504600  0.669000  1.0  -0.1459
  C  C111  1  0.496700  0.550500  0.670000  1.0  0.1887
  C  C112  1  0.424300  0.607000  0.562200  1.0  0.2043
  C  C113  1  0.563600  0.655000  0.529800  1.0  0.0654
  C  C114  1  0.650400  0.675200  0.523600  1.0  -0.1378
  C  C115  1  0.702000  0.736600  0.455900  1.0  -0.0929
  C  C116  1  0.667700  0.775200  0.395500  1.0  -0.1108
  C  C117  1  0.581400  0.755800  0.401800  1.0  -0.1465
  C  C118  1  0.529200  0.694900  0.470700  1.0  0.149
  C  C119  1  0.963200  0.458600  0.669000  1.0  -0.1472
  C  C120  1  0.053800  0.503300  0.670000  1.0  0.1895
  C  C121  1  0.182700  0.575700  0.562200  1.0  0.2036
  C  C122  1  0.091400  0.436400  0.529800  1.0  0.0652
  C  C123  1  0.024800  0.349600  0.523600  1.0  -0.1405
  C  C124  1  0.034600  0.298000  0.455900  1.0  -0.0943
  C  C125  1  0.107500  0.332300  0.395500  1.0  -0.1091
  C  C126  1  0.174400  0.418600  0.401800  1.0  -0.1458
  C  C127  1  0.165700  0.470800  0.470700  1.0  0.1473
  C  C128  1  0.495400  0.036800  0.669000  1.0  -0.1453
  C  C129  1  0.449500  0.946200  0.670000  1.0  0.1891
  C  C130  1  0.393000  0.817300  0.562200  1.0  0.2055
  C  C131  1  0.345000  0.908600  0.529800  1.0  0.0665
  C  C132  1  0.324800  0.975200  0.523600  1.0  -0.1376
  C  C133  1  0.263400  0.965400  0.455900  1.0  -0.0957
  C  C134  1  0.224800  0.892500  0.395500  1.0  -0.1117
  C  C135  1  0.244200  0.825600  0.401800  1.0  -0.1414
  C  C136  1  0.305100  0.834300  0.470700  1.0  0.1484
  C  C137  1  0.504600  0.541400  0.169000  1.0  -0.1471
  C  C138  1  0.550500  0.496700  0.170000  1.0  0.1895
  C  C139  1  0.607000  0.424300  0.062200  1.0  0.2039
  C  C140  1  0.655000  0.563600  0.029800  1.0  0.0649
  C  C141  1  0.675200  0.650400  0.023600  1.0  -0.1418
  C  C142  1  0.736600  0.702000  0.955900  1.0  -0.0857
  C  C143  1  0.775200  0.667700  0.895500  1.0  -0.1072
  C  C144  1  0.755800  0.581400  0.901800  1.0  -0.1467
  C  C145  1  0.694900  0.529200  0.970700  1.0  0.1473
  C  C146  1  0.458600  0.963200  0.169000  1.0  -0.1457
  C  C147  1  0.503300  0.053800  0.170000  1.0  0.1886
  C  C148  1  0.575700  0.182700  0.062200  1.0  0.2062
  C  C149  1  0.436400  0.091400  0.029800  1.0  0.0672
  C  C150  1  0.349600  0.024800  0.023600  1.0  -0.136
  C  C151  1  0.298000  0.034600  0.955900  1.0  -0.0961
  C  C152  1  0.332300  0.107500  0.895500  1.0  -0.1118
  C  C153  1  0.418600  0.174400  0.901800  1.0  -0.142
  C  C154  1  0.470800  0.165700  0.970700  1.0  0.1485
  C  C155  1  0.036800  0.495400  0.169000  1.0  -0.1461
  C  C156  1  0.946200  0.449500  0.170000  1.0  0.189
  C  C157  1  0.817300  0.393000  0.062200  1.0  0.2044
  C  C158  1  0.908600  0.345000  0.029800  1.0  0.0654
  C  C159  1  0.975200  0.324800  0.023600  1.0  -0.1372
  C  C160  1  0.965400  0.263400  0.955900  1.0  -0.0929
  C  C161  1  0.892500  0.224800  0.895500  1.0  -0.1119
  C  C162  1  0.825600  0.244200  0.901800  1.0  -0.1454
  C  C163  1  0.834300  0.305100  0.970700  1.0  0.1486
  C  C164  1  0.458600  0.495400  0.331000  1.0  -0.1443
  C  C165  1  0.503300  0.449500  0.330000  1.0  0.1895
  C  C166  1  0.575700  0.393000  0.437800  1.0  0.2054
  C  C167  1  0.436400  0.345000  0.470200  1.0  0.0643
  C  C168  1  0.349600  0.324800  0.476400  1.0  -0.1382
  C  C169  1  0.298000  0.263400  0.544100  1.0  -0.0927
  C  C170  1  0.332300  0.224800  0.604500  1.0  -0.1107
  C  C171  1  0.418600  0.244200  0.598200  1.0  -0.1449
  C  C172  1  0.470800  0.305100  0.529300  1.0  0.1481
  C  C173  1  0.036800  0.541400  0.331000  1.0  -0.1463
  C  C174  1  0.946200  0.496700  0.330000  1.0  0.1886
  C  C175  1  0.817300  0.424300  0.437800  1.0  0.2034
  C  C176  1  0.908600  0.563600  0.470200  1.0  0.0646
  C  C177  1  0.975200  0.650400  0.476400  1.0  -0.1414
  C  C178  1  0.965400  0.702000  0.544100  1.0  -0.085
  C  C179  1  0.892500  0.667700  0.604500  1.0  -0.1084
  C  C180  1  0.825600  0.581400  0.598200  1.0  -0.1464
  C  C181  1  0.834300  0.529200  0.529300  1.0  0.1478
  C  C182  1  0.504600  0.963200  0.331000  1.0  -0.1455
  C  C183  1  0.550500  0.053800  0.330000  1.0  0.1883
  C  C184  1  0.607000  0.182700  0.437800  1.0  0.2058
  C  C185  1  0.655000  0.091400  0.470200  1.0  0.0648
  C  C186  1  0.675200  0.024800  0.476400  1.0  -0.1371
  C  C187  1  0.736600  0.034600  0.544100  1.0  -0.0951
  C  C188  1  0.775200  0.107500  0.604500  1.0  -0.1098
  C  C189  1  0.755800  0.174400  0.598200  1.0  -0.1422
  C  C190  1  0.694900  0.165700  0.529300  1.0  0.1489
  C  C191  1  0.590970  0.409030  0.750000  1.0  0.6528
  C  C192  1  0.541430  0.458570  0.750000  1.0  -0.1719
  C  C193  1  0.450260  0.549740  0.750000  1.0  -0.193
  C  C194  1  0.590970  0.181940  0.750000  1.0  0.6552
  C  C195  1  0.541430  0.082860  0.750000  1.0  -0.1702
  C  C196  1  0.450260  0.900520  0.750000  1.0  -0.1907
  C  C197  1  0.818060  0.409030  0.750000  1.0  0.652
  C  C198  1  0.917140  0.458570  0.750000  1.0  -0.1718
  C  C199  1  0.099480  0.549740  0.750000  1.0  -0.1913
  C  C200  1  0.409030  0.590970  0.250000  1.0  0.6524
  C  C201  1  0.458570  0.541430  0.250000  1.0  -0.1718
  C  C202  1  0.549740  0.450260  0.250000  1.0  -0.191
  C  C203  1  0.409030  0.818060  0.250000  1.0  0.655
  C  C204  1  0.458570  0.917140  0.250000  1.0  -0.17
  C  C205  1  0.549740  0.099480  0.250000  1.0  -0.1902
  C  C206  1  0.181940  0.590970  0.250000  1.0  0.6534
  C  C207  1  0.082860  0.541430  0.250000  1.0  -0.1719
  C  C208  1  0.900520  0.450260  0.250000  1.0  -0.1928
  N  N209  1  0.401540  0.506100  0.911600  1.0  -0.0169
  N  N210  1  0.336680  0.559600  0.007250  1.0  -0.4687
  N  N211  1  0.493900  0.895440  0.911600  1.0  -0.0141
  N  N212  1  0.440400  0.777080  0.007250  1.0  -0.4687
  N  N213  1  0.104560  0.598460  0.911600  1.0  -0.0145
  N  N214  1  0.222920  0.663320  0.007250  1.0  -0.4672
  N  N215  1  0.493900  0.598460  0.588400  1.0  -0.0154
  N  N216  1  0.440400  0.663320  0.492750  1.0  -0.4662
  N  N217  1  0.104560  0.506100  0.588400  1.0  -0.0158
  N  N218  1  0.222920  0.559600  0.492750  1.0  -0.4679
  N  N219  1  0.401540  0.895440  0.588400  1.0  -0.0143
  N  N220  1  0.336680  0.777080  0.492750  1.0  -0.4684
  N  N221  1  0.598460  0.493900  0.088400  1.0  -0.0159
  N  N222  1  0.663320  0.440400  0.992750  1.0  -0.4677
  N  N223  1  0.506100  0.104560  0.088400  1.0  -0.0149
  N  N224  1  0.559600  0.222920  0.992750  1.0  -0.4684
  N  N225  1  0.895440  0.401540  0.088400  1.0  -0.0149
  N  N226  1  0.777080  0.336680  0.992750  1.0  -0.4664
  N  N227  1  0.506100  0.401540  0.411600  1.0  -0.0147
  N  N228  1  0.559600  0.336680  0.507250  1.0  -0.4663
  N  N229  1  0.895440  0.493900  0.411600  1.0  -0.0166
  N  N230  1  0.777080  0.440400  0.507250  1.0  -0.4683
  N  N231  1  0.598460  0.104560  0.411600  1.0  -0.0146
  N  N232  1  0.663320  0.222920  0.507250  1.0  -0.469
  O  O233  1  0.642310  0.422970  0.680970  1.0  -0.6145
  O  O234  1  0.577030  0.219340  0.680970  1.0  -0.615
  O  O235  1  0.780660  0.357690  0.680970  1.0  -0.6142
  O  O236  1  0.577030  0.357690  0.819030  1.0  -0.6138
  O  O237  1  0.780660  0.422970  0.819030  1.0  -0.6131
  O  O238  1  0.642310  0.219340  0.819030  1.0  -0.6143
  O  O239  1  0.357690  0.577030  0.319030  1.0  -0.6131
  O  O240  1  0.422970  0.780660  0.319030  1.0  -0.6141
  O  O241  1  0.219340  0.642310  0.319030  1.0  -0.6139
  O  O242  1  0.422970  0.642310  0.180970  1.0  -0.6142
  O  O243  1  0.219340  0.577030  0.180970  1.0  -0.6148
  O  O244  1  0.357690  0.780660  0.180970  1.0  -0.6148
