# generated using pymatgen
data_Mn2H39C63(N2O)6
_symmetry_space_group_name_H-M   'P 1'
_cell_length_a   17.20300000
_cell_length_b   17.20300000
_cell_length_c   14.04500000
_cell_angle_alpha   90.00000000
_cell_angle_beta   90.00000000
_cell_angle_gamma   120.00000000
_symmetry_Int_Tables_number   1
_chemical_formula_structural   Mn2H39C63(N2O)6
_chemical_formula_sum   'Mn4 H78 C126 N24 O12'
_cell_volume   3599.65396417
_cell_formula_units_Z   2
loop_
 _symmetry_equiv_pos_site_id
 _symmetry_equiv_pos_as_xyz
  1  'x, y, z'
loop_
 _atom_site_type_symbol
 _atom_site_label
 _atom_site_symmetry_multiplicity
 _atom_site_fract_x
 _atom_site_fract_y
 _atom_site_fract_z
 _atom_site_occupancy
 _atom_site_charge
  Mn  Mn1  1  0.666667  0.333333  0.105990  1.0  0.9747
  Mn  Mn2  1  0.666667  0.333333  0.394010  1.0  0.9749
  Mn  Mn3  1  0.333333  0.666667  0.894010  1.0  0.9749
  Mn  Mn4  1  0.333333  0.666667  0.605990  1.0  0.9747
  H  H5  1  0.938000  0.424400  0.382800  1.0  0.1119
  H  H6  1  0.210500  0.633000  0.416700  1.0  0.0925
  H  H7  1  0.990200  0.314900  0.413800  1.0  0.1168
  H  H8  1  0.008500  0.221000  0.518900  1.0  0.0954
  H  H9  1  0.123500  0.277900  0.628500  1.0  0.1014
  H  H10  1  0.229000  0.429900  0.633400  1.0  0.1162
  H  H11  1  0.575600  0.513600  0.382800  1.0  0.1117
  H  H12  1  0.367000  0.577500  0.416700  1.0  0.0924
  H  H13  1  0.685100  0.675300  0.413800  1.0  0.1159
  H  H14  1  0.779000  0.787500  0.518900  1.0  0.0958
  H  H15  1  0.722100  0.845600  0.628500  1.0  0.0999
  H  H16  1  0.570100  0.799100  0.633400  1.0  0.1159
  H  H17  1  0.486400  0.062000  0.382800  1.0  0.1118
  H  H18  1  0.422500  0.789500  0.416700  1.0  0.0922
  H  H19  1  0.324700  0.009800  0.413800  1.0  0.1179
  H  H20  1  0.212500  0.991500  0.518900  1.0  0.0961
  H  H21  1  0.154400  0.876500  0.628500  1.0  0.1001
  H  H22  1  0.200900  0.771000  0.633400  1.0  0.1165
  H  H23  1  0.575600  0.062000  0.117200  1.0  0.1107
  H  H24  1  0.367000  0.789500  0.083300  1.0  0.0924
  H  H25  1  0.685100  0.009800  0.086200  1.0  0.1168
  H  H26  1  0.779000  0.991500  0.981100  1.0  0.0963
  H  H27  1  0.722100  0.876500  0.871500  1.0  0.1001
  H  H28  1  0.570100  0.771000  0.866600  1.0  0.1165
  H  H29  1  0.486400  0.424400  0.117200  1.0  0.1109
  H  H30  1  0.422500  0.633000  0.083300  1.0  0.0928
  H  H31  1  0.324700  0.314900  0.086200  1.0  0.1172
  H  H32  1  0.212500  0.221000  0.981100  1.0  0.095
  H  H33  1  0.154400  0.277900  0.871500  1.0  0.1002
  H  H34  1  0.200900  0.429900  0.866600  1.0  0.1162
  H  H35  1  0.938000  0.513600  0.117200  1.0  0.1116
  H  H36  1  0.210500  0.577500  0.083300  1.0  0.0927
  H  H37  1  0.990200  0.675300  0.086200  1.0  0.116
  H  H38  1  0.008500  0.787500  0.981100  1.0  0.0955
  H  H39  1  0.123500  0.845600  0.871500  1.0  0.099
  H  H40  1  0.229000  0.799100  0.866600  1.0  0.1164
  H  H41  1  0.062000  0.575600  0.617200  1.0  0.1108
  H  H42  1  0.789500  0.367000  0.583300  1.0  0.0931
  H  H43  1  0.009800  0.685100  0.586200  1.0  0.1168
  H  H44  1  0.991500  0.779000  0.481100  1.0  0.0957
  H  H45  1  0.876500  0.722100  0.371500  1.0  0.1009
  H  H46  1  0.771000  0.570100  0.366600  1.0  0.1163
  H  H47  1  0.424400  0.486400  0.617200  1.0  0.1113
  H  H48  1  0.633000  0.422500  0.583300  1.0  0.0922
  H  H49  1  0.314900  0.324700  0.586200  1.0  0.1162
  H  H50  1  0.221000  0.212500  0.481100  1.0  0.0961
  H  H51  1  0.277900  0.154400  0.371500  1.0  0.0985
  H  H52  1  0.429900  0.200900  0.366600  1.0  0.1165
  H  H53  1  0.513600  0.938000  0.617200  1.0  0.1108
  H  H54  1  0.577500  0.210500  0.583300  1.0  0.0924
  H  H55  1  0.675300  0.990200  0.586200  1.0  0.1172
  H  H56  1  0.787500  0.008500  0.481100  1.0  0.0964
  H  H57  1  0.845600  0.123500  0.371500  1.0  0.1001
  H  H58  1  0.799100  0.229000  0.366600  1.0  0.1159
  H  H59  1  0.424400  0.938000  0.882800  1.0  0.112
  H  H60  1  0.633000  0.210500  0.916700  1.0  0.0921
  H  H61  1  0.314900  0.990200  0.913800  1.0  0.1176
  H  H62  1  0.221000  0.008500  0.018900  1.0  0.0963
  H  H63  1  0.277900  0.123500  0.128500  1.0  0.0999
  H  H64  1  0.429900  0.229000  0.133400  1.0  0.1162
  H  H65  1  0.513600  0.575600  0.882800  1.0  0.1114
  H  H66  1  0.577500  0.367000  0.916700  1.0  0.0934
  H  H67  1  0.675300  0.685100  0.913800  1.0  0.1171
  H  H68  1  0.787500  0.779000  0.018900  1.0  0.0957
  H  H69  1  0.845600  0.722100  0.128500  1.0  0.1013
  H  H70  1  0.799100  0.570100  0.133400  1.0  0.1162
  H  H71  1  0.062000  0.486400  0.882800  1.0  0.1121
  H  H72  1  0.789500  0.422500  0.916700  1.0  0.0919
  H  H73  1  0.009800  0.324700  0.913800  1.0  0.1165
  H  H74  1  0.991500  0.212500  0.018900  1.0  0.0958
  H  H75  1  0.876500  0.154400  0.128500  1.0  0.0999
  H  H76  1  0.771000  0.200900  0.133400  1.0  0.1159
  H  H77  1  0.170900  0.585450  0.250000  1.0  0.1183
  H  H78  1  0.414550  0.585450  0.250000  1.0  0.1183
  H  H79  1  0.414550  0.829100  0.250000  1.0  0.1163
  H  H80  1  0.829100  0.414550  0.750000  1.0  0.1182
  H  H81  1  0.585450  0.414550  0.750000  1.0  0.1184
  H  H82  1  0.585450  0.170900  0.750000  1.0  0.1168
  C  C83  1  0.969000  0.457700  0.329500  1.0  -0.1198
  C  C84  1  0.061800  0.504100  0.328600  1.0  0.1564
  C  C85  1  0.188000  0.575500  0.441300  1.0  0.2112
  C  C86  1  0.099900  0.429000  0.461800  1.0  0.0483
  C  C87  1  0.037300  0.337700  0.457200  1.0  -0.1564
  C  C88  1  0.048700  0.282500  0.520300  1.0  -0.1148
  C  C89  1  0.118900  0.316900  0.586000  1.0  -0.1067
  C  C90  1  0.182100  0.407600  0.589800  1.0  -0.1378
  C  C91  1  0.172400  0.464200  0.525600  1.0  0.138
  C  C92  1  0.542300  0.511300  0.329500  1.0  -0.1179
  C  C93  1  0.495900  0.557700  0.328600  1.0  0.155
  C  C94  1  0.424500  0.612500  0.441300  1.0  0.2126
  C  C95  1  0.571000  0.670900  0.461800  1.0  0.048
  C  C96  1  0.662300  0.699600  0.457200  1.0  -0.1545
  C  C97  1  0.717500  0.766200  0.520300  1.0  -0.1141
  C  C98  1  0.683100  0.802000  0.586000  1.0  -0.1046
  C  C99  1  0.592400  0.774500  0.589800  1.0  -0.1356
  C  C100  1  0.535800  0.708200  0.525600  1.0  0.1401
  C  C101  1  0.488700  0.031000  0.329500  1.0  -0.1188
  C  C102  1  0.442300  0.938200  0.328600  1.0  0.1561
  C  C103  1  0.387500  0.812000  0.441300  1.0  0.212
  C  C104  1  0.329100  0.900100  0.461800  1.0  0.0502
  C  C105  1  0.300400  0.962700  0.457200  1.0  -0.1497
  C  C106  1  0.233800  0.951300  0.520300  1.0  -0.1154
  C  C107  1  0.198000  0.881100  0.586000  1.0  -0.1056
  C  C108  1  0.225500  0.817900  0.589800  1.0  -0.1363
  C  C109  1  0.291800  0.827600  0.525600  1.0  0.1405
  C  C110  1  0.542300  0.031000  0.170500  1.0  -0.1181
  C  C111  1  0.495900  0.938200  0.171400  1.0  0.1563
  C  C112  1  0.424500  0.812000  0.058700  1.0  0.2116
  C  C113  1  0.571000  0.900100  0.038200  1.0  0.0502
  C  C114  1  0.662300  0.962700  0.042800  1.0  -0.1497
  C  C115  1  0.717500  0.951300  0.979700  1.0  -0.1144
  C  C116  1  0.683100  0.881100  0.914000  1.0  -0.1037
  C  C117  1  0.592400  0.817900  0.910200  1.0  -0.1359
  C  C118  1  0.535800  0.827600  0.974400  1.0  0.1402
  C  C119  1  0.488700  0.457700  0.170500  1.0  -0.12
  C  C120  1  0.442300  0.504100  0.171400  1.0  0.1561
  C  C121  1  0.387500  0.575500  0.058700  1.0  0.2114
  C  C122  1  0.329100  0.429000  0.038200  1.0  0.0493
  C  C123  1  0.300400  0.337700  0.042800  1.0  -0.1567
  C  C124  1  0.233800  0.282500  0.979700  1.0  -0.114
  C  C125  1  0.198000  0.316900  0.914000  1.0  -0.1072
  C  C126  1  0.225500  0.407600  0.910200  1.0  -0.1361
  C  C127  1  0.291800  0.464200  0.974400  1.0  0.1397
  C  C128  1  0.969000  0.511300  0.170500  1.0  -0.118
  C  C129  1  0.061800  0.557700  0.171400  1.0  0.156
  C  C130  1  0.188000  0.612500  0.058700  1.0  0.2125
  C  C131  1  0.099900  0.670900  0.038200  1.0  0.0493
  C  C132  1  0.037300  0.699600  0.042800  1.0  -0.1553
  C  C133  1  0.048700  0.766200  0.979700  1.0  -0.1175
  C  C134  1  0.118900  0.802000  0.914000  1.0  -0.1044
  C  C135  1  0.182100  0.774500  0.910200  1.0  -0.1344
  C  C136  1  0.172400  0.708200  0.974400  1.0  0.1408
  C  C137  1  0.031000  0.542300  0.670500  1.0  -0.1198
  C  C138  1  0.938200  0.495900  0.671400  1.0  0.1562
  C  C139  1  0.812000  0.424500  0.558700  1.0  0.2119
  C  C140  1  0.900100  0.571000  0.538200  1.0  0.0493
  C  C141  1  0.962700  0.662300  0.542800  1.0  -0.1555
  C  C142  1  0.951300  0.717500  0.479700  1.0  -0.1132
  C  C143  1  0.881100  0.683100  0.414000  1.0  -0.1062
  C  C144  1  0.817900  0.592400  0.410200  1.0  -0.1356
  C  C145  1  0.827600  0.535800  0.474400  1.0  0.1399
  C  C146  1  0.457700  0.488700  0.670500  1.0  -0.1178
  C  C147  1  0.504100  0.442300  0.671400  1.0  0.156
  C  C148  1  0.575500  0.387500  0.558700  1.0  0.2126
  C  C149  1  0.429000  0.329100  0.538200  1.0  0.0492
  C  C150  1  0.337700  0.300400  0.542800  1.0  -0.1553
  C  C151  1  0.282500  0.233800  0.479700  1.0  -0.1177
  C  C152  1  0.316900  0.198000  0.414000  1.0  -0.1048
  C  C153  1  0.407600  0.225500  0.410200  1.0  -0.1339
  C  C154  1  0.464200  0.291800  0.474400  1.0  0.1403
  C  C155  1  0.511300  0.969000  0.670500  1.0  -0.1186
  C  C156  1  0.557700  0.061800  0.671400  1.0  0.1562
  C  C157  1  0.612500  0.188000  0.558700  1.0  0.211
  C  C158  1  0.670900  0.099900  0.538200  1.0  0.0502
  C  C159  1  0.699600  0.037300  0.542800  1.0  -0.1501
  C  C160  1  0.766200  0.048700  0.479700  1.0  -0.1138
  C  C161  1  0.802000  0.118900  0.414000  1.0  -0.104
  C  C162  1  0.774500  0.182100  0.410200  1.0  -0.136
  C  C163  1  0.708200  0.172400  0.474400  1.0  0.1402
  C  C164  1  0.457700  0.969000  0.829500  1.0  -0.1192
  C  C165  1  0.504100  0.061800  0.828600  1.0  0.156
  C  C166  1  0.575500  0.188000  0.941300  1.0  0.2124
  C  C167  1  0.429000  0.099900  0.961800  1.0  0.0501
  C  C168  1  0.337700  0.037300  0.957200  1.0  -0.1489
  C  C169  1  0.282500  0.048700  0.020300  1.0  -0.115
  C  C170  1  0.316900  0.118900  0.086000  1.0  -0.1054
  C  C171  1  0.407600  0.182100  0.089800  1.0  -0.1359
  C  C172  1  0.464200  0.172400  0.025600  1.0  0.1407
  C  C173  1  0.511300  0.542300  0.829500  1.0  -0.1198
  C  C174  1  0.557700  0.495900  0.828600  1.0  0.1566
  C  C175  1  0.612500  0.424500  0.941300  1.0  0.2116
  C  C176  1  0.670900  0.571000  0.961800  1.0  0.0484
  C  C177  1  0.699600  0.662300  0.957200  1.0  -0.1552
  C  C178  1  0.766200  0.717500  0.020300  1.0  -0.1155
  C  C179  1  0.802000  0.683100  0.086000  1.0  -0.1065
  C  C180  1  0.774500  0.592400  0.089800  1.0  -0.1377
  C  C181  1  0.708200  0.535800  0.025600  1.0  0.1385
  C  C182  1  0.031000  0.488700  0.829500  1.0  -0.1179
  C  C183  1  0.938200  0.442300  0.828600  1.0  0.155
  C  C184  1  0.812000  0.387500  0.941300  1.0  0.2125
  C  C185  1  0.900100  0.329100  0.961800  1.0  0.0479
  C  C186  1  0.962700  0.300400  0.957200  1.0  -0.1546
  C  C187  1  0.951300  0.233800  0.020300  1.0  -0.1139
  C  C188  1  0.881100  0.198000  0.086000  1.0  -0.1047
  C  C189  1  0.817900  0.225500  0.089800  1.0  -0.1353
  C  C190  1  0.827600  0.291800  0.025600  1.0  0.1393
  C  C191  1  0.820900  0.410450  0.250000  1.0  0.6605
  C  C192  1  0.922100  0.461050  0.250000  1.0  -0.1757
  C  C193  1  0.108500  0.554250  0.250000  1.0  -0.2333
  C  C194  1  0.589550  0.410450  0.250000  1.0  0.6613
  C  C195  1  0.538950  0.461050  0.250000  1.0  -0.1756
  C  C196  1  0.445750  0.554250  0.250000  1.0  -0.236
  C  C197  1  0.589550  0.179100  0.250000  1.0  0.6634
  C  C198  1  0.538950  0.077900  0.250000  1.0  -0.1742
  C  C199  1  0.445750  0.891500  0.250000  1.0  -0.2321
  C  C200  1  0.179100  0.589550  0.750000  1.0  0.662
  C  C201  1  0.077900  0.538950  0.750000  1.0  -0.1755
  C  C202  1  0.891500  0.445750  0.750000  1.0  -0.2356
  C  C203  1  0.410450  0.589550  0.750000  1.0  0.6608
  C  C204  1  0.461050  0.538950  0.750000  1.0  -0.1758
  C  C205  1  0.554250  0.445750  0.750000  1.0  -0.2328
  C  C206  1  0.410450  0.820900  0.750000  1.0  0.6636
  C  C207  1  0.461050  0.922100  0.750000  1.0  -0.1744
  C  C208  1  0.554250  0.108500  0.750000  1.0  -0.2331
  N  N209  1  0.111400  0.502600  0.408100  1.0  -0.0522
  N  N210  1  0.226800  0.556800  0.511200  1.0  -0.4152
  N  N211  1  0.497400  0.608800  0.408100  1.0  -0.0499
  N  N212  1  0.443200  0.670000  0.511200  1.0  -0.4139
  N  N213  1  0.391200  0.888600  0.408100  1.0  -0.0514
  N  N214  1  0.330000  0.773200  0.511200  1.0  -0.4138
  N  N215  1  0.497400  0.888600  0.091900  1.0  -0.0516
  N  N216  1  0.443200  0.773200  0.988800  1.0  -0.4144
  N  N217  1  0.391200  0.502600  0.091900  1.0  -0.0519
  N  N218  1  0.330000  0.556800  0.988800  1.0  -0.4154
  N  N219  1  0.111400  0.608800  0.091900  1.0  -0.0512
  N  N220  1  0.226800  0.670000  0.988800  1.0  -0.415
  N  N221  1  0.888600  0.497400  0.591900  1.0  -0.0523
  N  N222  1  0.773200  0.443200  0.488800  1.0  -0.4152
  N  N223  1  0.502600  0.391200  0.591900  1.0  -0.0509
  N  N224  1  0.556800  0.330000  0.488800  1.0  -0.4145
  N  N225  1  0.608800  0.111400  0.591900  1.0  -0.0518
  N  N226  1  0.670000  0.226800  0.488800  1.0  -0.4153
  N  N227  1  0.502600  0.111400  0.908100  1.0  -0.0518
  N  N228  1  0.556800  0.226800  0.011200  1.0  -0.4149
  N  N229  1  0.608800  0.497400  0.908100  1.0  -0.0526
  N  N230  1  0.670000  0.443200  0.011200  1.0  -0.4147
  N  N231  1  0.888600  0.391200  0.908100  1.0  -0.0496
  N  N232  1  0.773200  0.330000  0.011200  1.0  -0.4135
  O  O233  1  0.783420  0.426540  0.182410  1.0  -0.6049
  O  O234  1  0.573460  0.356880  0.182410  1.0  -0.606
  O  O235  1  0.643120  0.216580  0.182410  1.0  -0.606
  O  O236  1  0.573460  0.216580  0.317590  1.0  -0.606
  O  O237  1  0.643120  0.426540  0.317590  1.0  -0.6054
  O  O238  1  0.783420  0.356880  0.317590  1.0  -0.6056
  O  O239  1  0.216580  0.573460  0.817590  1.0  -0.6053
  O  O240  1  0.426540  0.643120  0.817590  1.0  -0.606
  O  O241  1  0.356880  0.783420  0.817590  1.0  -0.6062
  O  O242  1  0.426540  0.783420  0.682410  1.0  -0.6061
  O  O243  1  0.356880  0.573460  0.682410  1.0  -0.6049
  O  O244  1  0.216580  0.643120  0.682410  1.0  -0.6063
