# generated using pymatgen
data_Mn2H39C63(N2O)6
_symmetry_space_group_name_H-M   'P 1'
_cell_length_a   17.24600000
_cell_length_b   17.24600000
_cell_length_c   14.13500000
_cell_angle_alpha   90.00000000
_cell_angle_beta   90.00000000
_cell_angle_gamma   120.00000000
_symmetry_Int_Tables_number   1
_chemical_formula_structural   Mn2H39C63(N2O)6
_chemical_formula_sum   'Mn4 H78 C126 N24 O12'
_cell_volume   3640.85353209
_cell_formula_units_Z   2
loop_
 _symmetry_equiv_pos_site_id
 _symmetry_equiv_pos_as_xyz
  1  'x, y, z'
loop_
 _atom_site_type_symbol
 _atom_site_label
 _atom_site_symmetry_multiplicity
 _atom_site_fract_x
 _atom_site_fract_y
 _atom_site_fract_z
 _atom_site_occupancy
 _atom_site_charge
  Mn  Mn1  1  0.666667  0.333333  0.104000  1.0  0.9678
  Mn  Mn2  1  0.666667  0.333333  0.396000  1.0  0.9674
  Mn  Mn3  1  0.333333  0.666667  0.896000  1.0  0.9674
  Mn  Mn4  1  0.333333  0.666667  0.604000  1.0  0.9678
  H  H5  1  0.571900  0.508800  0.115700  1.0  0.0996
  H  H6  1  0.367900  0.582400  0.091000  1.0  0.08
  H  H7  1  0.673500  0.649800  0.066800  1.0  0.1145
  H  H8  1  0.764500  0.747300  0.947900  1.0  0.0884
  H  H9  1  0.707000  0.810600  0.844700  1.0  0.0872
  H  H10  1  0.562700  0.777700  0.853100  1.0  0.109
  H  H11  1  0.491200  0.063100  0.115700  1.0  0.0995
  H  H12  1  0.417600  0.785500  0.091000  1.0  0.0804
  H  H13  1  0.350200  0.023700  0.066800  1.0  0.1142
  H  H14  1  0.252700  0.017200  0.947900  1.0  0.0899
  H  H15  1  0.189400  0.896400  0.844700  1.0  0.0875
  H  H16  1  0.222300  0.785000  0.853100  1.0  0.1097
  H  H17  1  0.936900  0.428100  0.115700  1.0  0.0993
  H  H18  1  0.214500  0.632100  0.091000  1.0  0.0807
  H  H19  1  0.976300  0.326500  0.066800  1.0  0.1149
  H  H20  1  0.982800  0.235500  0.947900  1.0  0.0906
  H  H21  1  0.103600  0.293000  0.844700  1.0  0.0869
  H  H22  1  0.215000  0.437300  0.853100  1.0  0.1079
  H  H23  1  0.491200  0.428100  0.384300  1.0  0.0989
  H  H24  1  0.417600  0.632100  0.409000  1.0  0.0812
  H  H25  1  0.350200  0.326500  0.433200  1.0  0.116
  H  H26  1  0.252700  0.235500  0.552100  1.0  0.0907
  H  H27  1  0.189400  0.293000  0.655300  1.0  0.0875
  H  H28  1  0.222300  0.437300  0.646900  1.0  0.1077
  H  H29  1  0.936900  0.508800  0.384300  1.0  0.0983
  H  H30  1  0.214500  0.582400  0.409000  1.0  0.0803
  H  H31  1  0.976300  0.649800  0.433200  1.0  0.1145
  H  H32  1  0.982800  0.747300  0.552100  1.0  0.0872
  H  H33  1  0.103600  0.810600  0.655300  1.0  0.0879
  H  H34  1  0.215000  0.777700  0.646900  1.0  0.1093
  H  H35  1  0.571900  0.063100  0.384300  1.0  0.0984
  H  H36  1  0.367900  0.785500  0.409000  1.0  0.0803
  H  H37  1  0.673500  0.023700  0.433200  1.0  0.1154
  H  H38  1  0.764500  0.017200  0.552100  1.0  0.0895
  H  H39  1  0.707000  0.896400  0.655300  1.0  0.0877
  H  H40  1  0.562700  0.785000  0.646900  1.0  0.1089
  H  H41  1  0.428100  0.491200  0.884300  1.0  0.0986
  H  H42  1  0.632100  0.417600  0.909000  1.0  0.0801
  H  H43  1  0.326500  0.350200  0.933200  1.0  0.1155
  H  H44  1  0.235500  0.252700  0.052100  1.0  0.0883
  H  H45  1  0.293000  0.189400  0.155300  1.0  0.087
  H  H46  1  0.437300  0.222300  0.146900  1.0  0.1099
  H  H47  1  0.508800  0.936900  0.884300  1.0  0.0987
  H  H48  1  0.582400  0.214500  0.909000  1.0  0.08
  H  H49  1  0.649800  0.976300  0.933200  1.0  0.1153
  H  H50  1  0.747300  0.982800  0.052100  1.0  0.0904
  H  H51  1  0.810600  0.103600  0.155300  1.0  0.0873
  H  H52  1  0.777700  0.215000  0.146900  1.0  0.109
  H  H53  1  0.063100  0.571900  0.884300  1.0  0.0986
  H  H54  1  0.785500  0.367900  0.909000  1.0  0.0821
  H  H55  1  0.023700  0.673500  0.933200  1.0  0.1162
  H  H56  1  0.017200  0.764500  0.052100  1.0  0.0903
  H  H57  1  0.896400  0.707000  0.155300  1.0  0.0874
  H  H58  1  0.785000  0.562700  0.146900  1.0  0.1081
  H  H59  1  0.508800  0.571900  0.615700  1.0  0.0996
  H  H60  1  0.582400  0.367900  0.591000  1.0  0.0814
  H  H61  1  0.649800  0.673500  0.566800  1.0  0.1149
  H  H62  1  0.747300  0.764500  0.447900  1.0  0.0905
  H  H63  1  0.810600  0.707000  0.344700  1.0  0.0877
  H  H64  1  0.777700  0.562700  0.353100  1.0  0.1083
  H  H65  1  0.063100  0.491200  0.615700  1.0  0.0995
  H  H66  1  0.785500  0.417600  0.591000  1.0  0.0797
  H  H67  1  0.023700  0.350200  0.566800  1.0  0.1151
  H  H68  1  0.017200  0.252700  0.447900  1.0  0.0882
  H  H69  1  0.896400  0.189400  0.344700  1.0  0.0862
  H  H70  1  0.785000  0.222300  0.353100  1.0  0.1089
  H  H71  1  0.428100  0.936900  0.615700  1.0  0.0996
  H  H72  1  0.632100  0.214500  0.591000  1.0  0.0799
  H  H73  1  0.326500  0.976300  0.566800  1.0  0.1146
  H  H74  1  0.235500  0.982800  0.447900  1.0  0.0896
  H  H75  1  0.293000  0.103600  0.344700  1.0  0.0875
  H  H76  1  0.437300  0.215000  0.353100  1.0  0.1101
  H  H77  1  0.415300  0.584700  0.250000  1.0  0.1154
  H  H78  1  0.415300  0.830600  0.250000  1.0  0.114
  H  H79  1  0.169400  0.584700  0.250000  1.0  0.1156
  H  H80  1  0.584700  0.415300  0.750000  1.0  0.1157
  H  H81  1  0.584700  0.169400  0.750000  1.0  0.1143
  H  H82  1  0.830600  0.415300  0.750000  1.0  0.1154
  C  C83  1  0.540700  0.508000  0.169800  1.0  -0.1421
  C  C84  1  0.495500  0.553400  0.171500  1.0  0.1474
  C  C85  1  0.423700  0.612200  0.061900  1.0  0.1941
  C  C86  1  0.565300  0.657600  0.028900  1.0  0.1294
  C  C87  1  0.651500  0.675400  0.024500  1.0  -0.1321
  C  C88  1  0.705200  0.733500  0.953800  1.0  -0.0896
  C  C89  1  0.670000  0.771400  0.891100  1.0  -0.1019
  C  C90  1  0.585100  0.753000  0.896000  1.0  -0.0987
  C  C91  1  0.530900  0.695400  0.967800  1.0  0.1551
  C  C92  1  0.492000  0.032700  0.169800  1.0  -0.1418
  C  C93  1  0.446600  0.942100  0.171500  1.0  0.148
  C  C94  1  0.387800  0.811500  0.061900  1.0  0.1939
  C  C95  1  0.342400  0.907700  0.028900  1.0  0.131
  C  C96  1  0.324600  0.976100  0.024500  1.0  -0.1311
  C  C97  1  0.266500  0.971700  0.953800  1.0  -0.0938
  C  C98  1  0.228600  0.898600  0.891100  1.0  -0.1056
  C  C99  1  0.247000  0.832100  0.896000  1.0  -0.0938
  C  C100  1  0.304600  0.835500  0.967800  1.0  0.155
  C  C101  1  0.967300  0.459300  0.169800  1.0  -0.1446
  C  C102  1  0.057900  0.504500  0.171500  1.0  0.1486
  C  C103  1  0.188500  0.576300  0.061900  1.0  0.1928
  C  C104  1  0.092300  0.434700  0.028900  1.0  0.13
  C  C105  1  0.023900  0.348500  0.024500  1.0  -0.1348
  C  C106  1  0.028300  0.294800  0.953800  1.0  -0.0903
  C  C107  1  0.101400  0.330000  0.891100  1.0  -0.1034
  C  C108  1  0.167900  0.414900  0.896000  1.0  -0.0983
  C  C109  1  0.164500  0.469100  0.967800  1.0  0.1538
  C  C110  1  0.492000  0.459300  0.330200  1.0  -0.143
  C  C111  1  0.446600  0.504500  0.328500  1.0  0.1455
  C  C112  1  0.387800  0.576300  0.438100  1.0  0.1937
  C  C113  1  0.342400  0.434700  0.471100  1.0  0.1287
  C  C114  1  0.324600  0.348500  0.475500  1.0  -0.1335
  C  C115  1  0.266500  0.294800  0.546200  1.0  -0.091
  C  C116  1  0.228600  0.330000  0.608900  1.0  -0.1045
  C  C117  1  0.247000  0.414900  0.604000  1.0  -0.0969
  C  C118  1  0.304600  0.469100  0.532200  1.0  0.1534
  C  C119  1  0.967300  0.508000  0.330200  1.0  -0.1412
  C  C120  1  0.057900  0.553400  0.328500  1.0  0.1462
  C  C121  1  0.188500  0.612200  0.438100  1.0  0.1939
  C  C122  1  0.092300  0.657600  0.471100  1.0  0.1291
  C  C123  1  0.023900  0.675400  0.475500  1.0  -0.132
  C  C124  1  0.028300  0.733500  0.546200  1.0  -0.0923
  C  C125  1  0.101400  0.771400  0.608900  1.0  -0.1045
  C  C126  1  0.167900  0.753000  0.604000  1.0  -0.0976
  C  C127  1  0.164500  0.695400  0.532200  1.0  0.1547
  C  C128  1  0.540700  0.032700  0.330200  1.0  -0.1414
  C  C129  1  0.495500  0.942100  0.328500  1.0  0.1464
  C  C130  1  0.423700  0.811500  0.438100  1.0  0.1946
  C  C131  1  0.565300  0.907700  0.471100  1.0  0.1301
  C  C132  1  0.651500  0.976100  0.475500  1.0  -0.13
  C  C133  1  0.705200  0.971700  0.546200  1.0  -0.0929
  C  C134  1  0.670000  0.898600  0.608900  1.0  -0.1039
  C  C135  1  0.585100  0.832100  0.604000  1.0  -0.0939
  C  C136  1  0.530900  0.835500  0.532200  1.0  0.1544
  C  C137  1  0.459300  0.492000  0.830200  1.0  -0.1413
  C  C138  1  0.504500  0.446600  0.828500  1.0  0.1477
  C  C139  1  0.576300  0.387800  0.938100  1.0  0.194
  C  C140  1  0.434700  0.342400  0.971100  1.0  0.1287
  C  C141  1  0.348500  0.324600  0.975500  1.0  -0.1324
  C  C142  1  0.294800  0.266500  0.046200  1.0  -0.092
  C  C143  1  0.330000  0.228600  0.108900  1.0  -0.1043
  C  C144  1  0.414900  0.247000  0.104000  1.0  -0.0974
  C  C145  1  0.469100  0.304600  0.032200  1.0  0.1546
  C  C146  1  0.508000  0.967300  0.830200  1.0  -0.1418
  C  C147  1  0.553400  0.057900  0.828500  1.0  0.1479
  C  C148  1  0.612200  0.188500  0.938100  1.0  0.1939
  C  C149  1  0.657600  0.092300  0.971100  1.0  0.1301
  C  C150  1  0.675400  0.023900  0.975500  1.0  -0.1309
  C  C151  1  0.733500  0.028300  0.046200  1.0  -0.0912
  C  C152  1  0.771400  0.101400  0.108900  1.0  -0.1032
  C  C153  1  0.753000  0.167900  0.104000  1.0  -0.0941
  C  C154  1  0.695400  0.164500  0.032200  1.0  0.1538
  C  C155  1  0.032700  0.540700  0.830200  1.0  -0.1424
  C  C156  1  0.942100  0.495500  0.828500  1.0  0.1471
  C  C157  1  0.811500  0.423700  0.938100  1.0  0.194
  C  C158  1  0.907700  0.565300  0.971100  1.0  0.1295
  C  C159  1  0.976100  0.651500  0.975500  1.0  -0.1324
  C  C160  1  0.971700  0.705200  0.046200  1.0  -0.0861
  C  C161  1  0.898600  0.670000  0.108900  1.0  -0.1024
  C  C162  1  0.832100  0.585100  0.104000  1.0  -0.0983
  C  C163  1  0.835500  0.530900  0.032200  1.0  0.1537
  C  C164  1  0.508000  0.540700  0.669800  1.0  -0.1442
  C  C165  1  0.553400  0.495500  0.671500  1.0  0.1473
  C  C166  1  0.612200  0.423700  0.561900  1.0  0.1933
  C  C167  1  0.657600  0.565300  0.528900  1.0  0.1299
  C  C168  1  0.675400  0.651500  0.524500  1.0  -0.1346
  C  C169  1  0.733500  0.705200  0.453800  1.0  -0.0865
  C  C170  1  0.771400  0.670000  0.391100  1.0  -0.1
  C  C171  1  0.753000  0.585100  0.396000  1.0  -0.0986
  C  C172  1  0.695400  0.530900  0.467800  1.0  0.1534
  C  C173  1  0.032700  0.492000  0.669800  1.0  -0.1422
  C  C174  1  0.942100  0.446600  0.671500  1.0  0.1461
  C  C175  1  0.811500  0.387800  0.561900  1.0  0.1937
  C  C176  1  0.907700  0.342400  0.528900  1.0  0.1292
  C  C177  1  0.976100  0.324600  0.524500  1.0  -0.1322
  C  C178  1  0.971700  0.266500  0.453800  1.0  -0.0895
  C  C179  1  0.898600  0.228600  0.391100  1.0  -0.1035
  C  C180  1  0.832100  0.247000  0.396000  1.0  -0.0985
  C  C181  1  0.835500  0.304600  0.467800  1.0  0.155
  C  C182  1  0.459300  0.967300  0.669800  1.0  -0.1425
  C  C183  1  0.504500  0.057900  0.671500  1.0  0.1464
  C  C184  1  0.576300  0.188500  0.561900  1.0  0.1935
  C  C185  1  0.434700  0.092300  0.528900  1.0  0.1314
  C  C186  1  0.348500  0.023900  0.524500  1.0  -0.1312
  C  C187  1  0.294800  0.028300  0.453800  1.0  -0.093
  C  C188  1  0.330000  0.101400  0.391100  1.0  -0.1055
  C  C189  1  0.414900  0.167900  0.396000  1.0  -0.094
  C  C190  1  0.469100  0.164500  0.467800  1.0  0.1546
  C  C191  1  0.590300  0.409700  0.250000  1.0  0.6588
  C  C192  1  0.540300  0.459700  0.250000  1.0  -0.1881
  C  C193  1  0.446400  0.553600  0.250000  1.0  -0.2107
  C  C194  1  0.590300  0.180600  0.250000  1.0  0.6613
  C  C195  1  0.540300  0.080600  0.250000  1.0  -0.1852
  C  C196  1  0.446400  0.892800  0.250000  1.0  -0.2089
  C  C197  1  0.819400  0.409700  0.250000  1.0  0.6583
  C  C198  1  0.919400  0.459700  0.250000  1.0  -0.1872
  C  C199  1  0.107200  0.553600  0.250000  1.0  -0.2078
  C  C200  1  0.409700  0.590300  0.750000  1.0  0.6585
  C  C201  1  0.459700  0.540300  0.750000  1.0  -0.187
  C  C202  1  0.553600  0.446400  0.750000  1.0  -0.2079
  C  C203  1  0.409700  0.819400  0.750000  1.0  0.6609
  C  C204  1  0.459700  0.919400  0.750000  1.0  -0.1856
  C  C205  1  0.553600  0.107200  0.750000  1.0  -0.2089
  C  C206  1  0.180600  0.590300  0.750000  1.0  0.6593
  C  C207  1  0.080600  0.540300  0.750000  1.0  -0.1878
  C  C208  1  0.892800  0.446400  0.750000  1.0  -0.2111
  N  N209  1  0.494400  0.603600  0.089500  1.0  -0.0903
  N  N210  1  0.442000  0.667300  0.989500  1.0  -0.4475
  N  N211  1  0.396400  0.890800  0.089500  1.0  -0.0914
  N  N212  1  0.332700  0.774700  0.989500  1.0  -0.4493
  N  N213  1  0.109200  0.505600  0.089500  1.0  -0.0913
  N  N214  1  0.225300  0.558000  0.989500  1.0  -0.4491
  N  N215  1  0.396400  0.505600  0.410500  1.0  -0.0931
  N  N216  1  0.332700  0.558000  0.510500  1.0  -0.4507
  N  N217  1  0.109200  0.603600  0.410500  1.0  -0.0908
  N  N218  1  0.225300  0.667300  0.510500  1.0  -0.4492
  N  N219  1  0.494400  0.890800  0.410500  1.0  -0.0923
  N  N220  1  0.442000  0.774700  0.510500  1.0  -0.4495
  N  N221  1  0.505600  0.396400  0.910500  1.0  -0.0914
  N  N222  1  0.558000  0.332700  0.010500  1.0  -0.4484
  N  N223  1  0.603600  0.109200  0.910500  1.0  -0.092
  N  N224  1  0.667300  0.225300  0.010500  1.0  -0.4509
  N  N225  1  0.890800  0.494400  0.910500  1.0  -0.0931
  N  N226  1  0.774700  0.442000  0.010500  1.0  -0.4506
  N  N227  1  0.603600  0.494400  0.589500  1.0  -0.0919
  N  N228  1  0.667300  0.442000  0.489500  1.0  -0.4492
  N  N229  1  0.890800  0.396400  0.589500  1.0  -0.0905
  N  N230  1  0.774700  0.332700  0.489500  1.0  -0.4475
  N  N231  1  0.505600  0.109200  0.589500  1.0  -0.0912
  N  N232  1  0.558000  0.225300  0.489500  1.0  -0.4502
  O  O233  1  0.642700  0.424700  0.182700  1.0  -0.6102
  O  O234  1  0.575300  0.218000  0.182700  1.0  -0.6112
  O  O235  1  0.782000  0.357300  0.182700  1.0  -0.6106
  O  O236  1  0.575300  0.357300  0.317300  1.0  -0.6104
  O  O237  1  0.782000  0.424700  0.317300  1.0  -0.6096
  O  O238  1  0.642700  0.218000  0.317300  1.0  -0.6108
  O  O239  1  0.357300  0.575300  0.817300  1.0  -0.6093
  O  O240  1  0.424700  0.782000  0.817300  1.0  -0.6105
  O  O241  1  0.218000  0.642700  0.817300  1.0  -0.6107
  O  O242  1  0.424700  0.642700  0.682700  1.0  -0.6104
  O  O243  1  0.218000  0.575300  0.682700  1.0  -0.6103
  O  O244  1  0.357300  0.782000  0.682700  1.0  -0.6113
