# generated using pymatgen
data_AgH2(CN2)2
_symmetry_space_group_name_H-M   'P 1'
_cell_length_a   7.73510000
_cell_length_b   10.81720000
_cell_length_c   7.15400000
_cell_angle_alpha   90.00000000
_cell_angle_beta   90.00000000
_cell_angle_gamma   90.00000000
_symmetry_Int_Tables_number   1
_chemical_formula_structural   AgH2(CN2)2
_chemical_formula_sum   'Ag4 H8 C8 N16'
_cell_volume   598.59037309
_cell_formula_units_Z   4
loop_
 _symmetry_equiv_pos_site_id
 _symmetry_equiv_pos_as_xyz
  1  'x, y, z'
loop_
 _atom_site_type_symbol
 _atom_site_label
 _atom_site_symmetry_multiplicity
 _atom_site_fract_x
 _atom_site_fract_y
 _atom_site_fract_z
 _atom_site_occupancy
 _atom_site_charge
  Ag  Ag1  1  0.274450  0.750000  0.292110  1.0  0.3602
  Ag  Ag2  1  0.725550  0.250000  0.707890  1.0  0.3607
  Ag  Ag3  1  0.225550  0.250000  0.792110  1.0  0.3611
  Ag  Ag4  1  0.774450  0.750000  0.207890  1.0  0.3597
  H  H5  1  0.284000  0.481000  0.483000  1.0  -0.0076
  H  H6  1  0.716000  0.981000  0.517000  1.0  -0.0066
  H  H7  1  0.716000  0.519000  0.517000  1.0  -0.0049
  H  H8  1  0.284000  0.019000  0.483000  1.0  -0.0064
  H  H9  1  0.216000  0.519000  0.983000  1.0  -0.0069
  H  H10  1  0.784000  0.019000  0.017000  1.0  -0.0086
  H  H11  1  0.784000  0.481000  0.017000  1.0  -0.0065
  H  H12  1  0.216000  0.981000  0.983000  1.0  -0.005
  C  C13  1  0.163500  0.489300  0.490800  1.0  0.3314
  C  C14  1  0.836500  0.989300  0.509200  1.0  0.3319
  C  C15  1  0.836500  0.510700  0.509200  1.0  0.3319
  C  C16  1  0.163500  0.010700  0.490800  1.0  0.3315
  C  C17  1  0.336500  0.510700  0.990800  1.0  0.332
  C  C18  1  0.663500  0.010700  0.009200  1.0  0.3314
  C  C19  1  0.663500  0.489300  0.009200  1.0  0.3313
  C  C20  1  0.336500  0.989300  0.990800  1.0  0.332
  N  N21  1  0.091100  0.581550  0.395400  1.0  -0.2587
  N  N22  1  0.921400  0.592120  0.404100  1.0  -0.2487
  N  N23  1  0.908900  0.081550  0.604600  1.0  -0.2584
  N  N24  1  0.078600  0.092120  0.595900  1.0  -0.2493
  N  N25  1  0.908900  0.418450  0.604600  1.0  -0.2556
  N  N26  1  0.078600  0.407880  0.595900  1.0  -0.2467
  N  N27  1  0.091100  0.918450  0.395400  1.0  -0.256
  N  N28  1  0.921400  0.907880  0.404100  1.0  -0.2477
  N  N29  1  0.408900  0.418450  0.895400  1.0  -0.2563
  N  N30  1  0.578600  0.407880  0.904100  1.0  -0.2472
  N  N31  1  0.591100  0.918450  0.104600  1.0  -0.2552
  N  N32  1  0.421400  0.907880  0.095900  1.0  -0.2475
  N  N33  1  0.591100  0.581550  0.104600  1.0  -0.2585
  N  N34  1  0.421400  0.592120  0.095900  1.0  -0.2495
  N  N35  1  0.408900  0.081550  0.895400  1.0  -0.2583
  N  N36  1  0.578600  0.092120  0.904100  1.0  -0.249
