# generated using pymatgen
data_FeAg2H8(C2N)8
_symmetry_space_group_name_H-M   'P 1'
_cell_length_a   26.20030000
_cell_length_b   26.20030000
_cell_length_c   9.80140000
_cell_angle_alpha   90.00000000
_cell_angle_beta   90.00000000
_cell_angle_gamma   120.00000000
_symmetry_Int_Tables_number   1
_chemical_formula_structural   FeAg2H8(C2N)8
_chemical_formula_sum   'Fe9 Ag18 H72 C144 N72'
_cell_volume   5826.81558661
_cell_formula_units_Z   9
loop_
 _symmetry_equiv_pos_site_id
 _symmetry_equiv_pos_as_xyz
  1  'x, y, z'
loop_
 _atom_site_type_symbol
 _atom_site_label
 _atom_site_symmetry_multiplicity
 _atom_site_fract_x
 _atom_site_fract_y
 _atom_site_fract_z
 _atom_site_occupancy
 _atom_site_charge
  Fe  Fe1  1  0.500000  0.000000  0.000000  1.0  0.6209
  Fe  Fe2  1  0.166670  0.333333  0.333333  1.0  0.6229
  Fe  Fe3  1  0.833330  0.666667  0.666667  1.0  0.6239
  Fe  Fe4  1  0.000000  0.500000  0.000000  1.0  0.6209
  Fe  Fe5  1  0.666667  0.833330  0.333333  1.0  0.623
  Fe  Fe6  1  0.333333  0.166670  0.666667  1.0  0.6238
  Fe  Fe7  1  0.500000  0.500000  0.000000  1.0  0.6209
  Fe  Fe8  1  0.166670  0.833330  0.333333  1.0  0.6229
  Fe  Fe9  1  0.833330  0.166670  0.666667  1.0  0.6239
  Ag  Ag10  1  0.369400  0.036060  0.333333  1.0  0.3272
  Ag  Ag11  1  0.963940  0.333333  0.333333  1.0  0.3271
  Ag  Ag12  1  0.666667  0.630600  0.333333  1.0  0.3264
  Ag  Ag13  1  0.036060  0.369400  0.666667  1.0  0.3272
  Ag  Ag14  1  0.702730  0.702730  0.000000  1.0  0.3272
  Ag  Ag15  1  0.333333  0.963940  0.666667  1.0  0.3265
  Ag  Ag16  1  0.000000  0.297270  0.000000  1.0  0.3264
  Ag  Ag17  1  0.630600  0.666667  0.666667  1.0  0.327
  Ag  Ag18  1  0.297270  0.000000  0.000000  1.0  0.3272
  Ag  Ag19  1  0.630600  0.963940  0.666667  1.0  0.3275
  Ag  Ag20  1  0.297270  0.297270  0.000000  1.0  0.3276
  Ag  Ag21  1  0.036060  0.666667  0.666667  1.0  0.327
  Ag  Ag22  1  0.702730  0.000000  0.000000  1.0  0.3269
  Ag  Ag23  1  0.369400  0.333333  0.333333  1.0  0.327
  Ag  Ag24  1  0.333333  0.369400  0.666667  1.0  0.3272
  Ag  Ag25  1  0.000000  0.702730  0.000000  1.0  0.3273
  Ag  Ag26  1  0.963940  0.630600  0.333333  1.0  0.3276
  Ag  Ag27  1  0.666667  0.036060  0.333333  1.0  0.3272
  H  H28  1  0.375900  0.901900  0.012000  1.0  0.1021
  H  H29  1  0.324200  0.801800  0.009300  1.0  0.1184
  H  H30  1  0.042570  0.235230  0.345330  1.0  0.1021
  H  H31  1  0.990870  0.135130  0.342630  1.0  0.1186
  H  H32  1  0.709230  0.568570  0.678670  1.0  0.1021
  H  H33  1  0.657530  0.468470  0.675970  1.0  0.1184
  H  H34  1  0.098100  0.474000  0.012000  1.0  0.1013
  H  H35  1  0.198200  0.522400  0.009300  1.0  0.1183
  H  H36  1  0.764770  0.807330  0.345330  1.0  0.1013
  H  H37  1  0.864870  0.855730  0.342630  1.0  0.1203
  H  H38  1  0.431430  0.140670  0.678670  1.0  0.1013
  H  H39  1  0.531530  0.189070  0.675970  1.0  0.1183
  H  H40  1  0.526000  0.624100  0.012000  1.0  0.1006
  H  H41  1  0.477600  0.675800  0.009300  1.0  0.1193
  H  H42  1  0.192670  0.957430  0.345330  1.0  0.1006
  H  H43  1  0.144270  0.009130  0.342630  1.0  0.1163
  H  H44  1  0.859330  0.290770  0.678670  1.0  0.1006
  H  H45  1  0.810930  0.342470  0.675970  1.0  0.1193
  H  H46  1  0.901900  0.375900  0.988000  1.0  0.1008
  H  H47  1  0.801800  0.324200  0.990700  1.0  0.1161
  H  H48  1  0.568570  0.709230  0.321330  1.0  0.1008
  H  H49  1  0.468470  0.657530  0.324030  1.0  0.1161
  H  H50  1  0.235230  0.042570  0.654670  1.0  0.1008
  H  H51  1  0.135130  0.990870  0.657370  1.0  0.1163
  H  H52  1  0.474000  0.098100  0.988000  1.0  0.1027
  H  H53  1  0.522400  0.198200  0.990700  1.0  0.1188
  H  H54  1  0.140670  0.431430  0.321330  1.0  0.1027
  H  H55  1  0.189070  0.531530  0.324030  1.0  0.1188
  H  H56  1  0.807330  0.764770  0.654670  1.0  0.1027
  H  H57  1  0.855730  0.864870  0.657370  1.0  0.1213
  H  H58  1  0.624100  0.526000  0.988000  1.0  0.1018
  H  H59  1  0.675800  0.477600  0.990700  1.0  0.1208
  H  H60  1  0.290770  0.859330  0.321330  1.0  0.1018
  H  H61  1  0.342470  0.810930  0.324030  1.0  0.1208
  H  H62  1  0.957430  0.192670  0.654670  1.0  0.1018
  H  H63  1  0.009130  0.144270  0.657370  1.0  0.1187
  H  H64  1  0.624100  0.098100  0.988000  1.0  0.1025
  H  H65  1  0.675800  0.198200  0.990700  1.0  0.1177
  H  H66  1  0.290770  0.431430  0.321330  1.0  0.1025
  H  H67  1  0.342470  0.531530  0.324030  1.0  0.1177
  H  H68  1  0.957430  0.764770  0.654670  1.0  0.1025
  H  H69  1  0.009130  0.864870  0.657370  1.0  0.1179
  H  H70  1  0.901900  0.526000  0.988000  1.0  0.1017
  H  H71  1  0.801800  0.477600  0.990700  1.0  0.1184
  H  H72  1  0.568570  0.859330  0.321330  1.0  0.1017
  H  H73  1  0.468470  0.810930  0.324030  1.0  0.1184
  H  H74  1  0.235230  0.192670  0.654670  1.0  0.1017
  H  H75  1  0.135130  0.144270  0.657370  1.0  0.1209
  H  H76  1  0.474000  0.375900  0.988000  1.0  0.1008
  H  H77  1  0.522400  0.324200  0.990700  1.0  0.1191
  H  H78  1  0.140670  0.709230  0.321330  1.0  0.1008
  H  H79  1  0.189070  0.657530  0.324030  1.0  0.1191
  H  H80  1  0.807330  0.042570  0.654670  1.0  0.1008
  H  H81  1  0.855730  0.990870  0.657370  1.0  0.116
  H  H82  1  0.098100  0.624100  0.012000  1.0  0.1001
  H  H83  1  0.198200  0.675800  0.009300  1.0  0.1164
  H  H84  1  0.764770  0.957430  0.345330  1.0  0.1001
  H  H85  1  0.864870  0.009130  0.342630  1.0  0.1167
  H  H86  1  0.431430  0.290770  0.678670  1.0  0.1001
  H  H87  1  0.531530  0.342470  0.675970  1.0  0.1164
  H  H88  1  0.526000  0.901900  0.012000  1.0  0.102
  H  H89  1  0.477600  0.801800  0.009300  1.0  0.1183
  H  H90  1  0.192670  0.235230  0.345330  1.0  0.102
  H  H91  1  0.144270  0.135130  0.342630  1.0  0.1206
  H  H92  1  0.859330  0.568570  0.678670  1.0  0.102
  H  H93  1  0.810930  0.468470  0.675970  1.0  0.1183
  H  H94  1  0.375900  0.474000  0.012000  1.0  0.1012
  H  H95  1  0.324200  0.522400  0.009300  1.0  0.1207
  H  H96  1  0.042570  0.807330  0.345330  1.0  0.1012
  H  H97  1  0.990870  0.855730  0.342630  1.0  0.1184
  H  H98  1  0.709230  0.140670  0.678670  1.0  0.1012
  H  H99  1  0.657530  0.189070  0.675970  1.0  0.1207
  C  C100  1  0.396400  0.881400  0.010400  1.0  0.1671
  C  C101  1  0.365200  0.821400  0.009100  1.0  -0.0985
  C  C102  1  0.415200  0.008700  0.210100  1.0  -0.0154
  C  C103  1  0.063070  0.214730  0.343730  1.0  0.1651
  C  C104  1  0.031870  0.154730  0.342430  1.0  -0.1004
  C  C105  1  0.081870  0.342030  0.543430  1.0  -0.0188
  C  C106  1  0.729730  0.548070  0.677070  1.0  0.1671
  C  C107  1  0.698530  0.488070  0.675770  1.0  -0.0981
  C  C108  1  0.748530  0.675370  0.876770  1.0  -0.007
  C  C109  1  0.118600  0.515000  0.010400  1.0  0.1642
  C  C110  1  0.178600  0.543800  0.009100  1.0  -0.0995
  C  C111  1  0.991300  0.406500  0.210100  1.0  -0.0194
  C  C112  1  0.785270  0.848330  0.343730  1.0  0.167
  C  C113  1  0.845270  0.877130  0.342430  1.0  -0.0976
  C  C114  1  0.657970  0.739830  0.543430  1.0  -0.0096
  C  C115  1  0.451930  0.181670  0.677070  1.0  0.1642
  C  C116  1  0.511930  0.210470  0.675770  1.0  -0.0999
  C  C117  1  0.324630  0.073170  0.876770  1.0  -0.021
  C  C118  1  0.485000  0.603600  0.010400  1.0  0.1683
  C  C119  1  0.456200  0.634800  0.009100  1.0  -0.0996
  C  C120  1  0.593500  0.584800  0.210100  1.0  -0.0093
  C  C121  1  0.151670  0.936930  0.343730  1.0  0.1683
  C  C122  1  0.122870  0.968130  0.342430  1.0  -0.0996
  C  C123  1  0.260170  0.918130  0.543430  1.0  -0.0092
  C  C124  1  0.818330  0.270270  0.677070  1.0  0.1683
  C  C125  1  0.789530  0.301470  0.675770  1.0  -0.1
  C  C126  1  0.926830  0.251470  0.876770  1.0  -0.0093
  C  C127  1  0.881400  0.396400  0.989600  1.0  0.1673
  C  C128  1  0.821400  0.365200  0.990900  1.0  -0.0982
  C  C129  1  0.008700  0.415200  0.789900  1.0  -0.0148
  C  C130  1  0.548070  0.729730  0.322930  1.0  0.1673
  C  C131  1  0.488070  0.698530  0.324230  1.0  -0.0978
  C  C132  1  0.675370  0.748530  0.123230  1.0  -0.0065
  C  C133  1  0.214730  0.063070  0.656270  1.0  0.1645
  C  C134  1  0.154730  0.031870  0.657570  1.0  -0.1011
  C  C135  1  0.342030  0.081870  0.456570  1.0  -0.0178
  C  C136  1  0.515000  0.118600  0.989600  1.0  0.1648
  C  C137  1  0.543800  0.178600  0.990900  1.0  -0.1
  C  C138  1  0.406500  0.991300  0.789900  1.0  -0.0148
  C  C139  1  0.181670  0.451930  0.322930  1.0  0.1648
  C  C140  1  0.210470  0.511930  0.324230  1.0  -0.1004
  C  C141  1  0.073170  0.324630  0.123230  1.0  -0.0166
  C  C142  1  0.848330  0.785270  0.656270  1.0  0.1668
  C  C143  1  0.877130  0.845270  0.657570  1.0  -0.098
  C  C144  1  0.739830  0.657970  0.456570  1.0  -0.0049
  C  C145  1  0.603600  0.485000  0.989600  1.0  0.1662
  C  C146  1  0.634800  0.456200  0.990900  1.0  -0.097
  C  C147  1  0.584800  0.593500  0.789900  1.0  -0.0081
  C  C148  1  0.270270  0.818330  0.322930  1.0  0.1662
  C  C149  1  0.301470  0.789530  0.324230  1.0  -0.0974
  C  C150  1  0.251470  0.926830  0.123230  1.0  -0.0081
  C  C151  1  0.936930  0.151670  0.656270  1.0  0.1662
  C  C152  1  0.968130  0.122870  0.657570  1.0  -0.0969
  C  C153  1  0.918130  0.260170  0.456570  1.0  -0.008
  C  C154  1  0.603600  0.118600  0.989600  1.0  0.1675
  C  C155  1  0.634800  0.178600  0.990900  1.0  -0.0973
  C  C156  1  0.584800  0.991300  0.789900  1.0  -0.0133
  C  C157  1  0.270270  0.451930  0.322930  1.0  0.1675
  C  C158  1  0.301470  0.511930  0.324230  1.0  -0.0968
  C  C159  1  0.251470  0.324630  0.123230  1.0  -0.0051
  C  C160  1  0.936930  0.785270  0.656270  1.0  0.1651
  C  C161  1  0.968130  0.845270  0.657570  1.0  -0.0999
  C  C162  1  0.918130  0.657970  0.456570  1.0  -0.0163
  C  C163  1  0.881400  0.485000  0.989600  1.0  0.164
  C  C164  1  0.821400  0.456200  0.990900  1.0  -0.1003
  C  C165  1  0.008700  0.593500  0.789900  1.0  -0.0172
  C  C166  1  0.548070  0.818330  0.322930  1.0  0.164
  C  C167  1  0.488070  0.789530  0.324230  1.0  -0.1007
  C  C168  1  0.675370  0.926830  0.123230  1.0  -0.0191
  C  C169  1  0.214730  0.151670  0.656270  1.0  0.1662
  C  C170  1  0.154730  0.122870  0.657570  1.0  -0.0978
  C  C171  1  0.342030  0.260170  0.456570  1.0  -0.0075
  C  C172  1  0.515000  0.396400  0.989600  1.0  0.1671
  C  C173  1  0.543800  0.365200  0.990900  1.0  -0.0981
  C  C174  1  0.406500  0.415200  0.789900  1.0  -0.0062
  C  C175  1  0.181670  0.729730  0.322930  1.0  0.1671
  C  C176  1  0.210470  0.698530  0.324230  1.0  -0.0985
  C  C177  1  0.073170  0.748530  0.123230  1.0  -0.0062
  C  C178  1  0.848330  0.063070  0.656270  1.0  0.1671
  C  C179  1  0.877130  0.031870  0.657570  1.0  -0.098
  C  C180  1  0.739830  0.081870  0.456570  1.0  -0.0061
  C  C181  1  0.118600  0.603600  0.010400  1.0  0.1677
  C  C182  1  0.178600  0.634800  0.009100  1.0  -0.1001
  C  C183  1  0.991300  0.584800  0.210100  1.0  -0.0171
  C  C184  1  0.785270  0.936930  0.343730  1.0  0.165
  C  C185  1  0.845270  0.968130  0.342430  1.0  -0.1026
  C  C186  1  0.657970  0.918130  0.543430  1.0  -0.0207
  C  C187  1  0.451930  0.270270  0.677070  1.0  0.1677
  C  C188  1  0.511930  0.301470  0.675770  1.0  -0.0997
  C  C189  1  0.324630  0.251470  0.876770  1.0  -0.0087
  C  C190  1  0.485000  0.881400  0.010400  1.0  0.1658
  C  C191  1  0.456200  0.821400  0.009100  1.0  -0.1004
  C  C192  1  0.593500  0.008700  0.210100  1.0  -0.0177
  C  C193  1  0.151670  0.214730  0.343730  1.0  0.1682
  C  C194  1  0.122870  0.154730  0.342430  1.0  -0.0985
  C  C195  1  0.260170  0.342030  0.543430  1.0  -0.0078
  C  C196  1  0.818330  0.548070  0.677070  1.0  0.1658
  C  C197  1  0.789530  0.488070  0.675770  1.0  -0.1008
  C  C198  1  0.926830  0.675370  0.876770  1.0  -0.0192
  C  C199  1  0.396400  0.515000  0.010400  1.0  0.1674
  C  C200  1  0.365200  0.543800  0.009100  1.0  -0.0972
  C  C201  1  0.415200  0.406500  0.210100  1.0  -0.0093
  C  C202  1  0.063070  0.848330  0.343730  1.0  0.1674
  C  C203  1  0.031870  0.877130  0.342430  1.0  -0.0971
  C  C204  1  0.081870  0.739830  0.543430  1.0  -0.0093
  C  C205  1  0.729730  0.181670  0.677070  1.0  0.1674
  C  C206  1  0.698530  0.210470  0.675770  1.0  -0.0976
  C  C207  1  0.748530  0.073170  0.876770  1.0  -0.0093
  C  C208  1  0.394700  0.789400  0.007300  1.0  -0.0586
  C  C209  1  0.362100  0.724200  0.004700  1.0  0.3938
  C  C210  1  0.061370  0.122730  0.340630  1.0  -0.0586
  C  C211  1  0.028770  0.057530  0.338030  1.0  0.3953
  C  C212  1  0.728030  0.456070  0.673970  1.0  -0.0586
  C  C213  1  0.695430  0.390870  0.671370  1.0  0.3938
  C  C214  1  0.210600  0.605300  0.007300  1.0  -0.0602
  C  C215  1  0.275800  0.637900  0.004700  1.0  0.392
  C  C216  1  0.877270  0.938630  0.340630  1.0  -0.0602
  C  C217  1  0.942470  0.971230  0.338030  1.0  0.3936
  C  C218  1  0.543930  0.271970  0.673970  1.0  -0.0602
  C  C219  1  0.609130  0.304570  0.671370  1.0  0.392
  C  C220  1  0.394700  0.605300  0.007300  1.0  -0.0617
  C  C221  1  0.362100  0.637900  0.004700  1.0  0.3944
  C  C222  1  0.061370  0.938630  0.340630  1.0  -0.0617
  C  C223  1  0.028770  0.971230  0.338030  1.0  0.3914
  C  C224  1  0.728030  0.271970  0.673970  1.0  -0.0617
  C  C225  1  0.695430  0.304570  0.671370  1.0  0.3944
  C  C226  1  0.789400  0.394700  0.992700  1.0  -0.0627
  C  C227  1  0.724200  0.362100  0.995300  1.0  0.3968
  C  C228  1  0.456070  0.728030  0.326030  1.0  -0.0627
  C  C229  1  0.390870  0.695430  0.328630  1.0  0.3968
  C  C230  1  0.122730  0.061370  0.659370  1.0  -0.0627
  C  C231  1  0.057530  0.028770  0.661970  1.0  0.3985
  C  C232  1  0.605300  0.210600  0.992700  1.0  -0.0589
  C  C233  1  0.637900  0.275800  0.995300  1.0  0.398
  C  C234  1  0.271970  0.543930  0.326030  1.0  -0.0589
  C  C235  1  0.304570  0.609130  0.328630  1.0  0.398
  C  C236  1  0.938630  0.877270  0.659370  1.0  -0.0589
  C  C237  1  0.971230  0.942470  0.661970  1.0  0.3997
  C  C238  1  0.605300  0.394700  0.992700  1.0  -0.0628
  C  C239  1  0.637900  0.362100  0.995300  1.0  0.4
  C  C240  1  0.271970  0.728030  0.326030  1.0  -0.0628
  C  C241  1  0.304570  0.695430  0.328630  1.0  0.4
  C  C242  1  0.938630  0.061370  0.659370  1.0  -0.0628
  C  C243  1  0.971230  0.028770  0.661970  1.0  0.3975
  N  N244  1  0.447400  0.003300  0.137800  1.0  -0.348
  N  N245  1  0.114070  0.336630  0.471130  1.0  -0.347
  N  N246  1  0.780730  0.669970  0.804470  1.0  -0.3489
  N  N247  1  0.996700  0.444100  0.137800  1.0  -0.3514
  N  N248  1  0.663370  0.777430  0.471130  1.0  -0.3486
  N  N249  1  0.330030  0.110770  0.804470  1.0  -0.3486
  N  N250  1  0.555900  0.552600  0.137800  1.0  -0.348
  N  N251  1  0.222570  0.885930  0.471130  1.0  -0.3481
  N  N252  1  0.889230  0.219270  0.804470  1.0  -0.348
  N  N253  1  0.003300  0.447400  0.862200  1.0  -0.3444
  N  N254  1  0.669970  0.780730  0.195530  1.0  -0.3454
  N  N255  1  0.336630  0.114070  0.528870  1.0  -0.344
  N  N256  1  0.444100  0.996700  0.862200  1.0  -0.3494
  N  N257  1  0.110770  0.330030  0.195530  1.0  -0.346
  N  N258  1  0.777430  0.663370  0.528870  1.0  -0.346
  N  N259  1  0.552600  0.555900  0.862200  1.0  -0.3473
  N  N260  1  0.219270  0.889230  0.195530  1.0  -0.3473
  N  N261  1  0.885930  0.222570  0.528870  1.0  -0.3474
  N  N262  1  0.552600  0.996700  0.862200  1.0  -0.3439
  N  N263  1  0.219270  0.330030  0.195530  1.0  -0.3454
  N  N264  1  0.885930  0.663370  0.528870  1.0  -0.3435
  N  N265  1  0.003300  0.555900  0.862200  1.0  -0.3496
  N  N266  1  0.669970  0.889230  0.195530  1.0  -0.3464
  N  N267  1  0.336630  0.222570  0.528870  1.0  -0.3462
  N  N268  1  0.444100  0.447400  0.862200  1.0  -0.3461
  N  N269  1  0.110770  0.780730  0.195530  1.0  -0.3461
  N  N270  1  0.777430  0.114070  0.528870  1.0  -0.3462
  N  N271  1  0.996700  0.552600  0.137800  1.0  -0.3491
  N  N272  1  0.663370  0.885930  0.471130  1.0  -0.3484
  N  N273  1  0.330030  0.219270  0.804470  1.0  -0.3497
  N  N274  1  0.555900  0.003300  0.137800  1.0  -0.3488
  N  N275  1  0.222570  0.336630  0.471130  1.0  -0.3467
  N  N276  1  0.889230  0.669970  0.804470  1.0  -0.3463
  N  N277  1  0.447400  0.444100  0.137800  1.0  -0.3482
  N  N278  1  0.114070  0.777430  0.471130  1.0  -0.3482
  N  N279  1  0.780730  0.110770  0.804470  1.0  -0.3482
  N  N280  1  0.456300  0.912600  0.009500  1.0  -0.3098
  N  N281  1  0.122970  0.245930  0.342830  1.0  -0.3098
  N  N282  1  0.789630  0.579270  0.676170  1.0  -0.3098
  N  N283  1  0.087400  0.543700  0.009500  1.0  -0.3107
  N  N284  1  0.754070  0.877030  0.342830  1.0  -0.3107
  N  N285  1  0.420730  0.210370  0.676170  1.0  -0.3107
  N  N286  1  0.456300  0.543700  0.009500  1.0  -0.3077
  N  N287  1  0.122970  0.877030  0.342830  1.0  -0.3077
  N  N288  1  0.789630  0.210370  0.676170  1.0  -0.3077
  N  N289  1  0.912600  0.456300  0.990500  1.0  -0.3095
  N  N290  1  0.579270  0.789630  0.323830  1.0  -0.3096
  N  N291  1  0.245930  0.122970  0.657170  1.0  -0.3095
  N  N292  1  0.543700  0.087400  0.990500  1.0  -0.3113
  N  N293  1  0.210370  0.420730  0.323830  1.0  -0.3114
  N  N294  1  0.877030  0.754070  0.657170  1.0  -0.3113
  N  N295  1  0.543700  0.456300  0.990500  1.0  -0.308
  N  N296  1  0.210370  0.789630  0.323830  1.0  -0.308
  N  N297  1  0.877030  0.122970  0.657170  1.0  -0.308
  N  N298  1  0.393700  0.696850  0.005600  1.0  -0.5193
  N  N299  1  0.060370  0.030180  0.338930  1.0  -0.5193
  N  N300  1  0.727030  0.363520  0.672270  1.0  -0.5193
  N  N301  1  0.303150  0.696850  0.005600  1.0  -0.5195
  N  N302  1  0.969820  0.030180  0.338930  1.0  -0.5195
  N  N303  1  0.636480  0.363520  0.672270  1.0  -0.5195
  N  N304  1  0.303150  0.606300  0.005600  1.0  -0.52
  N  N305  1  0.969820  0.939630  0.338930  1.0  -0.52
  N  N306  1  0.636480  0.272970  0.672270  1.0  -0.52
  N  N307  1  0.696850  0.393700  0.994400  1.0  -0.5211
  N  N308  1  0.363520  0.727030  0.327730  1.0  -0.5211
  N  N309  1  0.030180  0.060370  0.661070  1.0  -0.5211
  N  N310  1  0.696850  0.303150  0.994400  1.0  -0.5193
  N  N311  1  0.363520  0.636480  0.327730  1.0  -0.5193
  N  N312  1  0.030180  0.969820  0.661070  1.0  -0.5193
  N  N313  1  0.606300  0.303150  0.994400  1.0  -0.5228
  N  N314  1  0.272970  0.636480  0.327730  1.0  -0.5228
  N  N315  1  0.939630  0.969820  0.661070  1.0  -0.5228
