# generated using pymatgen
data_FeAg2H8(C2N)8
_symmetry_space_group_name_H-M   'P 1'
_cell_length_a   26.89130000
_cell_length_b   26.89130000
_cell_length_c   10.00690000
_cell_angle_alpha   90.00000000
_cell_angle_beta   90.00000000
_cell_angle_gamma   120.00000000
_symmetry_Int_Tables_number   1
_chemical_formula_structural   FeAg2H8(C2N)8
_chemical_formula_sum   'Fe9 Ag18 H72 C144 N72'
_cell_volume   6266.91475087
_cell_formula_units_Z   9
loop_
 _symmetry_equiv_pos_site_id
 _symmetry_equiv_pos_as_xyz
  1  'x, y, z'
loop_
 _atom_site_type_symbol
 _atom_site_label
 _atom_site_symmetry_multiplicity
 _atom_site_fract_x
 _atom_site_fract_y
 _atom_site_fract_z
 _atom_site_occupancy
 _atom_site_charge
  Fe  Fe1  1  0.500000  0.000000  0.000000  1.0  0.4511
  Fe  Fe2  1  0.166670  0.333333  0.333333  1.0  0.4702
  Fe  Fe3  1  0.833330  0.666667  0.666667  1.0  0.47
  Fe  Fe4  1  0.000000  0.500000  0.000000  1.0  0.4511
  Fe  Fe5  1  0.666667  0.833330  0.333333  1.0  0.4708
  Fe  Fe6  1  0.333333  0.166670  0.666667  1.0  0.4694
  Fe  Fe7  1  0.500000  0.500000  0.000000  1.0  0.4511
  Fe  Fe8  1  0.166670  0.833330  0.333333  1.0  0.4707
  Fe  Fe9  1  0.833330  0.166670  0.666667  1.0  0.4694
  Ag  Ag10  1  0.368850  0.035520  0.333333  1.0  0.382
  Ag  Ag11  1  0.964480  0.333333  0.333333  1.0  0.3805
  Ag  Ag12  1  0.666667  0.631150  0.333333  1.0  0.3806
  Ag  Ag13  1  0.035520  0.368850  0.666667  1.0  0.382
  Ag  Ag14  1  0.702180  0.702180  0.000000  1.0  0.382
  Ag  Ag15  1  0.333333  0.964480  0.666667  1.0  0.3807
  Ag  Ag16  1  0.000000  0.297820  0.000000  1.0  0.3808
  Ag  Ag17  1  0.631150  0.666667  0.666667  1.0  0.3805
  Ag  Ag18  1  0.297820  0.000000  0.000000  1.0  0.3806
  Ag  Ag19  1  0.631150  0.964480  0.666667  1.0  0.382
  Ag  Ag20  1  0.297820  0.297820  0.000000  1.0  0.382
  Ag  Ag21  1  0.035520  0.666667  0.666667  1.0  0.3809
  Ag  Ag22  1  0.702180  0.000000  0.000000  1.0  0.381
  Ag  Ag23  1  0.368850  0.333333  0.333333  1.0  0.3809
  Ag  Ag24  1  0.333333  0.368850  0.666667  1.0  0.381
  Ag  Ag25  1  0.000000  0.702180  0.000000  1.0  0.3811
  Ag  Ag26  1  0.964480  0.631150  0.333333  1.0  0.382
  Ag  Ag27  1  0.666667  0.035520  0.333333  1.0  0.3811
  H  H28  1  0.519800  0.895700  0.004500  1.0  0.0966
  H  H29  1  0.472900  0.797600  0.004000  1.0  0.1414
  H  H30  1  0.186470  0.229030  0.337830  1.0  0.0966
  H  H31  1  0.139570  0.130930  0.337330  1.0  0.1429
  H  H32  1  0.853130  0.562370  0.671170  1.0  0.0966
  H  H33  1  0.806230  0.464270  0.670670  1.0  0.1414
  H  H34  1  0.104300  0.624100  0.004500  1.0  0.0961
  H  H35  1  0.202400  0.675300  0.004000  1.0  0.1393
  H  H36  1  0.770970  0.957430  0.337830  1.0  0.0959
  H  H37  1  0.869070  0.008630  0.337330  1.0  0.1393
  H  H38  1  0.437630  0.290770  0.671170  1.0  0.0961
  H  H39  1  0.535730  0.341970  0.670670  1.0  0.1393
  H  H40  1  0.375900  0.480200  0.004500  1.0  0.097
  H  H41  1  0.324700  0.527100  0.004000  1.0  0.1424
  H  H42  1  0.042570  0.813530  0.337830  1.0  0.0968
  H  H43  1  0.991370  0.860430  0.337330  1.0  0.1403
  H  H44  1  0.709230  0.146870  0.671170  1.0  0.097
  H  H45  1  0.658030  0.193770  0.670670  1.0  0.1424
  H  H46  1  0.895700  0.519800  0.995500  1.0  0.0973
  H  H47  1  0.797600  0.472900  0.996000  1.0  0.1407
  H  H48  1  0.562370  0.853130  0.328830  1.0  0.0973
  H  H49  1  0.464270  0.806230  0.329330  1.0  0.1407
  H  H50  1  0.229030  0.186470  0.662170  1.0  0.0973
  H  H51  1  0.130930  0.139570  0.662670  1.0  0.1426
  H  H52  1  0.624100  0.104300  0.995500  1.0  0.0968
  H  H53  1  0.675300  0.202400  0.996000  1.0  0.1411
  H  H54  1  0.290770  0.437630  0.328830  1.0  0.0968
  H  H55  1  0.341970  0.535730  0.329330  1.0  0.1411
  H  H56  1  0.957430  0.770970  0.662170  1.0  0.0967
  H  H57  1  0.008630  0.869070  0.662670  1.0  0.1411
  H  H58  1  0.480200  0.375900  0.995500  1.0  0.0966
  H  H59  1  0.527100  0.324700  0.996000  1.0  0.1421
  H  H60  1  0.146870  0.709230  0.328830  1.0  0.0966
  H  H61  1  0.193770  0.658030  0.329330  1.0  0.1421
  H  H62  1  0.813530  0.042570  0.662170  1.0  0.0965
  H  H63  1  0.860430  0.991370  0.662670  1.0  0.1392
  H  H64  1  0.480200  0.104300  0.995500  1.0  0.0971
  H  H65  1  0.527100  0.202400  0.996000  1.0  0.1414
  H  H66  1  0.146870  0.437630  0.328830  1.0  0.0971
  H  H67  1  0.193770  0.535730  0.329330  1.0  0.1414
  H  H68  1  0.813530  0.770970  0.662170  1.0  0.0971
  H  H69  1  0.860430  0.869070  0.662670  1.0  0.1436
  H  H70  1  0.895700  0.375900  0.995500  1.0  0.0959
  H  H71  1  0.797600  0.324700  0.996000  1.0  0.1396
  H  H72  1  0.562370  0.709230  0.328830  1.0  0.0959
  H  H73  1  0.464270  0.658030  0.329330  1.0  0.1396
  H  H74  1  0.229030  0.042570  0.662170  1.0  0.0958
  H  H75  1  0.130930  0.991370  0.662670  1.0  0.1396
  H  H76  1  0.624100  0.519800  0.995500  1.0  0.0973
  H  H77  1  0.675300  0.472900  0.996000  1.0  0.1433
  H  H78  1  0.290770  0.853130  0.328830  1.0  0.0973
  H  H79  1  0.341970  0.806230  0.329330  1.0  0.1433
  H  H80  1  0.957430  0.186470  0.662170  1.0  0.0972
  H  H81  1  0.008630  0.139570  0.662670  1.0  0.1408
  H  H82  1  0.104300  0.480200  0.004500  1.0  0.0971
  H  H83  1  0.202400  0.527100  0.004000  1.0  0.1403
  H  H84  1  0.770970  0.813530  0.337830  1.0  0.0971
  H  H85  1  0.869070  0.860430  0.337330  1.0  0.1423
  H  H86  1  0.437630  0.146870  0.671170  1.0  0.0971
  H  H87  1  0.535730  0.193770  0.670670  1.0  0.1403
  H  H88  1  0.375900  0.895700  0.004500  1.0  0.0967
  H  H89  1  0.324700  0.797600  0.004000  1.0  0.141
  H  H90  1  0.042570  0.229030  0.337830  1.0  0.0966
  H  H91  1  0.991370  0.130930  0.337330  1.0  0.141
  H  H92  1  0.709230  0.562370  0.671170  1.0  0.0967
  H  H93  1  0.658030  0.464270  0.670670  1.0  0.141
  H  H94  1  0.519800  0.624100  0.004500  1.0  0.0959
  H  H95  1  0.472900  0.675300  0.004000  1.0  0.1418
  H  H96  1  0.186470  0.957430  0.337830  1.0  0.0957
  H  H97  1  0.139570  0.008630  0.337330  1.0  0.1389
  H  H98  1  0.853130  0.290770  0.671170  1.0  0.0959
  H  H99  1  0.806230  0.341970  0.670670  1.0  0.1418
  C  C100  1  0.479900  0.875700  0.003900  1.0  0.1964
  C  C101  1  0.452000  0.816600  0.003500  1.0  -0.1389
  C  C102  1  0.411800  0.008100  0.212400  1.0  -0.0226
  C  C103  1  0.146570  0.209030  0.337230  1.0  0.1994
  C  C104  1  0.118670  0.149930  0.336830  1.0  -0.1386
  C  C105  1  0.078470  0.341430  0.545730  1.0  -0.0225
  C  C106  1  0.813230  0.542370  0.670570  1.0  0.1964
  C  C107  1  0.785330  0.483270  0.670170  1.0  -0.1389
  C  C108  1  0.745130  0.674770  0.879070  1.0  -0.0213
  C  C109  1  0.124300  0.604200  0.003900  1.0  0.1984
  C  C110  1  0.183400  0.635400  0.003500  1.0  -0.1402
  C  C111  1  0.991900  0.403700  0.212400  1.0  -0.0221
  C  C112  1  0.790970  0.937530  0.337230  1.0  0.1949
  C  C113  1  0.850070  0.968730  0.336830  1.0  -0.1418
  C  C114  1  0.658570  0.737030  0.545730  1.0  -0.0219
  C  C115  1  0.457630  0.270870  0.670570  1.0  0.1984
  C  C116  1  0.516730  0.302070  0.670170  1.0  -0.1402
  C  C117  1  0.325230  0.070370  0.879070  1.0  -0.0241
  C  C118  1  0.395800  0.520100  0.003900  1.0  0.1984
  C  C119  1  0.364600  0.548000  0.003500  1.0  -0.1377
  C  C120  1  0.596300  0.588200  0.212400  1.0  -0.0227
  C  C121  1  0.062470  0.853430  0.337230  1.0  0.1984
  C  C122  1  0.031270  0.881330  0.336830  1.0  -0.1377
  C  C123  1  0.262970  0.921530  0.545730  1.0  -0.0226
  C  C124  1  0.729130  0.186770  0.670570  1.0  0.1984
  C  C125  1  0.697930  0.214670  0.670170  1.0  -0.1377
  C  C126  1  0.929630  0.254870  0.879070  1.0  -0.0227
  C  C127  1  0.875700  0.479900  0.996100  1.0  0.1953
  C  C128  1  0.816600  0.452000  0.996500  1.0  -0.1399
  C  C129  1  0.008100  0.411800  0.787600  1.0  -0.0225
  C  C130  1  0.542370  0.813230  0.329430  1.0  0.1953
  C  C131  1  0.483270  0.785330  0.329830  1.0  -0.1399
  C  C132  1  0.674770  0.745130  0.120930  1.0  -0.0204
  C  C133  1  0.209030  0.146570  0.662770  1.0  0.1985
  C  C134  1  0.149930  0.118670  0.663170  1.0  -0.1396
  C  C135  1  0.341430  0.078470  0.454270  1.0  -0.0225
  C  C136  1  0.604200  0.124300  0.996100  1.0  0.1992
  C  C137  1  0.635400  0.183400  0.996500  1.0  -0.1394
  C  C138  1  0.403700  0.991900  0.787600  1.0  -0.0194
  C  C139  1  0.270870  0.457630  0.329430  1.0  0.1992
  C  C140  1  0.302070  0.516730  0.329830  1.0  -0.1394
  C  C141  1  0.070370  0.325230  0.120930  1.0  -0.0211
  C  C142  1  0.937530  0.790970  0.662770  1.0  0.1954
  C  C143  1  0.968730  0.850070  0.663170  1.0  -0.139
  C  C144  1  0.737030  0.658570  0.454270  1.0  -0.0192
  C  C145  1  0.520100  0.395800  0.996100  1.0  0.1984
  C  C146  1  0.548000  0.364600  0.996500  1.0  -0.14
  C  C147  1  0.588200  0.596300  0.787600  1.0  -0.0214
  C  C148  1  0.186770  0.729130  0.329430  1.0  0.1984
  C  C149  1  0.214670  0.697930  0.329830  1.0  -0.14
  C  C150  1  0.254870  0.929630  0.120930  1.0  -0.0214
  C  C151  1  0.853430  0.062470  0.662770  1.0  0.1984
  C  C152  1  0.881330  0.031270  0.663170  1.0  -0.14
  C  C153  1  0.921530  0.262970  0.454270  1.0  -0.0213
  C  C154  1  0.520100  0.124300  0.996100  1.0  0.1957
  C  C155  1  0.548000  0.183400  0.996500  1.0  -0.1393
  C  C156  1  0.588200  0.991900  0.787600  1.0  -0.0214
  C  C157  1  0.186770  0.457630  0.329430  1.0  0.1957
  C  C158  1  0.214670  0.516730  0.329830  1.0  -0.1393
  C  C159  1  0.254870  0.325230  0.120930  1.0  -0.0192
  C  C160  1  0.853430  0.790970  0.662770  1.0  0.1986
  C  C161  1  0.881330  0.850070  0.663170  1.0  -0.1391
  C  C162  1  0.921530  0.658570  0.454270  1.0  -0.0213
  C  C163  1  0.875700  0.395800  0.996100  1.0  0.1997
  C  C164  1  0.816600  0.364600  0.996500  1.0  -0.1399
  C  C165  1  0.008100  0.596300  0.787600  1.0  -0.021
  C  C166  1  0.542370  0.729130  0.329430  1.0  0.1997
  C  C167  1  0.483270  0.697930  0.329830  1.0  -0.1399
  C  C168  1  0.674770  0.929630  0.120930  1.0  -0.0229
  C  C169  1  0.209030  0.062470  0.662770  1.0  0.1957
  C  C170  1  0.149930  0.031270  0.663170  1.0  -0.1406
  C  C171  1  0.341430  0.262970  0.454270  1.0  -0.0209
  C  C172  1  0.604200  0.479900  0.996100  1.0  0.1987
  C  C173  1  0.635400  0.452000  0.996500  1.0  -0.1389
  C  C174  1  0.403700  0.411800  0.787600  1.0  -0.0209
  C  C175  1  0.270870  0.813230  0.329430  1.0  0.1987
  C  C176  1  0.302070  0.785330  0.329830  1.0  -0.1389
  C  C177  1  0.070370  0.745130  0.120930  1.0  -0.0209
  C  C178  1  0.937530  0.146570  0.662770  1.0  0.1987
  C  C179  1  0.968730  0.118670  0.663170  1.0  -0.1389
  C  C180  1  0.737030  0.078470  0.454270  1.0  -0.0208
  C  C181  1  0.124300  0.520100  0.003900  1.0  0.1946
  C  C182  1  0.183400  0.548000  0.003500  1.0  -0.1386
  C  C183  1  0.991900  0.588200  0.212400  1.0  -0.0246
  C  C184  1  0.790970  0.853430  0.337230  1.0  0.1982
  C  C185  1  0.850070  0.881330  0.336830  1.0  -0.1381
  C  C186  1  0.658570  0.921530  0.545730  1.0  -0.0245
  C  C187  1  0.457630  0.186770  0.670570  1.0  0.1946
  C  C188  1  0.516730  0.214670  0.670170  1.0  -0.1386
  C  C189  1  0.325230  0.254870  0.879070  1.0  -0.0231
  C  C190  1  0.395800  0.875700  0.003900  1.0  0.1983
  C  C191  1  0.364600  0.816600  0.003500  1.0  -0.1368
  C  C192  1  0.596300  0.008100  0.212400  1.0  -0.0207
  C  C193  1  0.062470  0.209030  0.337230  1.0  0.1944
  C  C194  1  0.031270  0.149930  0.336830  1.0  -0.1375
  C  C195  1  0.262970  0.341430  0.545730  1.0  -0.0205
  C  C196  1  0.729130  0.542370  0.670570  1.0  0.1983
  C  C197  1  0.697930  0.483270  0.670170  1.0  -0.1368
  C  C198  1  0.929630  0.674770  0.879070  1.0  -0.0223
  C  C199  1  0.479900  0.604200  0.003900  1.0  0.2
  C  C200  1  0.452000  0.635400  0.003500  1.0  -0.1401
  C  C201  1  0.411800  0.403700  0.212400  1.0  -0.0217
  C  C202  1  0.146570  0.937530  0.337230  1.0  0.2
  C  C203  1  0.118670  0.968730  0.336830  1.0  -0.1401
  C  C204  1  0.078470  0.737030  0.545730  1.0  -0.0216
  C  C205  1  0.813230  0.270870  0.670570  1.0  0.2
  C  C206  1  0.785330  0.302070  0.670170  1.0  -0.1401
  C  C207  1  0.745130  0.070370  0.879070  1.0  -0.0217
  C  C208  1  0.392950  0.785900  0.002200  1.0  -0.0307
  C  C209  1  0.361350  0.722700  0.001700  1.0  0.4244
  C  C210  1  0.059620  0.119230  0.335530  1.0  -0.0307
  C  C211  1  0.028020  0.056030  0.335030  1.0  0.4244
  C  C212  1  0.726280  0.452570  0.668870  1.0  -0.0307
  C  C213  1  0.694680  0.389370  0.668370  1.0  0.4244
  C  C214  1  0.214100  0.607050  0.002200  1.0  -0.0321
  C  C215  1  0.277300  0.638650  0.001700  1.0  0.4247
  C  C216  1  0.880770  0.940380  0.335530  1.0  -0.0321
  C  C217  1  0.943970  0.971980  0.335030  1.0  0.4246
  C  C218  1  0.547430  0.273720  0.668870  1.0  -0.0321
  C  C219  1  0.610630  0.305320  0.668370  1.0  0.4247
  C  C220  1  0.392950  0.607050  0.002200  1.0  -0.0341
  C  C221  1  0.361350  0.638650  0.001700  1.0  0.4126
  C  C222  1  0.059620  0.940380  0.335530  1.0  -0.0341
  C  C223  1  0.028020  0.971980  0.335030  1.0  0.4239
  C  C224  1  0.726280  0.273720  0.668870  1.0  -0.0341
  C  C225  1  0.694680  0.305320  0.668370  1.0  0.4126
  C  C226  1  0.785900  0.392950  0.997800  1.0  -0.0343
  C  C227  1  0.722700  0.361350  0.998300  1.0  0.4251
  C  C228  1  0.452570  0.726280  0.331130  1.0  -0.0343
  C  C229  1  0.389370  0.694680  0.331630  1.0  0.4251
  C  C230  1  0.119230  0.059620  0.664470  1.0  -0.0343
  C  C231  1  0.056030  0.028020  0.664970  1.0  0.4251
  C  C232  1  0.607050  0.214100  0.997800  1.0  -0.0309
  C  C233  1  0.638650  0.277300  0.998300  1.0  0.4274
  C  C234  1  0.273720  0.547430  0.331130  1.0  -0.0309
  C  C235  1  0.305320  0.610630  0.331630  1.0  0.4274
  C  C236  1  0.940380  0.880770  0.664470  1.0  -0.0309
  C  C237  1  0.971980  0.943970  0.664970  1.0  0.4274
  C  C238  1  0.607050  0.392950  0.997800  1.0  -0.0343
  C  C239  1  0.638650  0.361350  0.998300  1.0  0.416
  C  C240  1  0.273720  0.726280  0.331130  1.0  -0.0343
  C  C241  1  0.305320  0.694680  0.331630  1.0  0.416
  C  C242  1  0.940380  0.059620  0.664470  1.0  -0.0343
  C  C243  1  0.971980  0.028020  0.664970  1.0  0.4275
  N  N244  1  0.441600  0.999900  0.146800  1.0  -0.3782
  N  N245  1  0.108270  0.333230  0.480130  1.0  -0.3716
  N  N246  1  0.774930  0.666570  0.813470  1.0  -0.3765
  N  N247  1  0.000100  0.441700  0.146800  1.0  -0.3712
  N  N248  1  0.666770  0.775030  0.480130  1.0  -0.3788
  N  N249  1  0.333430  0.108370  0.813470  1.0  -0.3741
  N  N250  1  0.558300  0.558400  0.146800  1.0  -0.377
  N  N251  1  0.224970  0.891730  0.480130  1.0  -0.377
  N  N252  1  0.891630  0.225070  0.813470  1.0  -0.3769
  N  N253  1  0.999900  0.441600  0.853200  1.0  -0.3794
  N  N254  1  0.666570  0.774930  0.186530  1.0  -0.3771
  N  N255  1  0.333230  0.108270  0.519870  1.0  -0.3722
  N  N256  1  0.441700  0.000100  0.853200  1.0  -0.3697
  N  N257  1  0.108370  0.333430  0.186530  1.0  -0.3717
  N  N258  1  0.775030  0.666770  0.519870  1.0  -0.377
  N  N259  1  0.558400  0.558300  0.853200  1.0  -0.3784
  N  N260  1  0.225070  0.891630  0.186530  1.0  -0.3784
  N  N261  1  0.891730  0.224970  0.519870  1.0  -0.3784
  N  N262  1  0.558400  0.000100  0.853200  1.0  -0.3786
  N  N263  1  0.225070  0.333430  0.186530  1.0  -0.3763
  N  N264  1  0.891730  0.666770  0.519870  1.0  -0.3716
  N  N265  1  0.999900  0.558300  0.853200  1.0  -0.3694
  N  N266  1  0.666570  0.891630  0.186530  1.0  -0.3719
  N  N267  1  0.333230  0.224970  0.519870  1.0  -0.377
  N  N268  1  0.441700  0.441600  0.853200  1.0  -0.3769
  N  N269  1  0.108370  0.774930  0.186530  1.0  -0.3769
  N  N270  1  0.775030  0.108270  0.519870  1.0  -0.3769
  N  N271  1  0.000100  0.558400  0.146800  1.0  -0.3791
  N  N272  1  0.666770  0.891730  0.480130  1.0  -0.3723
  N  N273  1  0.333430  0.225070  0.813470  1.0  -0.3771
  N  N274  1  0.558300  0.999900  0.146800  1.0  -0.369
  N  N275  1  0.224970  0.333230  0.480130  1.0  -0.3763
  N  N276  1  0.891630  0.666570  0.813470  1.0  -0.372
  N  N277  1  0.441600  0.441700  0.146800  1.0  -0.3776
  N  N278  1  0.108270  0.775030  0.480130  1.0  -0.3776
  N  N279  1  0.774930  0.108370  0.813470  1.0  -0.3776
  N  N280  1  0.452750  0.905500  0.003600  1.0  -0.2945
  N  N281  1  0.119420  0.238830  0.336930  1.0  -0.2945
  N  N282  1  0.786080  0.572170  0.670270  1.0  -0.2945
  N  N283  1  0.094500  0.547250  0.003600  1.0  -0.2876
  N  N284  1  0.761170  0.880580  0.336930  1.0  -0.2876
  N  N285  1  0.427830  0.213920  0.670270  1.0  -0.2876
  N  N286  1  0.452750  0.547250  0.003600  1.0  -0.2802
  N  N287  1  0.119420  0.880580  0.336930  1.0  -0.2801
  N  N288  1  0.786080  0.213920  0.670270  1.0  -0.2802
  N  N289  1  0.905500  0.452750  0.996400  1.0  -0.285
  N  N290  1  0.572170  0.786080  0.329730  1.0  -0.285
  N  N291  1  0.238830  0.119420  0.663070  1.0  -0.285
  N  N292  1  0.547250  0.094500  0.996400  1.0  -0.2938
  N  N293  1  0.213920  0.427830  0.329730  1.0  -0.2938
  N  N294  1  0.880580  0.761170  0.663070  1.0  -0.2938
  N  N295  1  0.547250  0.452750  0.996400  1.0  -0.2828
  N  N296  1  0.213920  0.786080  0.329730  1.0  -0.2828
  N  N297  1  0.880580  0.119420  0.663070  1.0  -0.2828
  N  N298  1  0.303970  0.696030  0.002600  1.0  -0.5112
  N  N299  1  0.970640  0.029360  0.335930  1.0  -0.5119
  N  N300  1  0.637300  0.362700  0.669270  1.0  -0.5112
  N  N301  1  0.303970  0.607940  0.002600  1.0  -0.5143
  N  N302  1  0.970640  0.941270  0.335930  1.0  -0.514
  N  N303  1  0.637300  0.274610  0.669270  1.0  -0.5143
  N  N304  1  0.392060  0.696030  0.002600  1.0  -0.5123
  N  N305  1  0.058730  0.029360  0.335930  1.0  -0.512
  N  N306  1  0.725390  0.362700  0.669270  1.0  -0.5123
  N  N307  1  0.696030  0.303970  0.997400  1.0  -0.5141
  N  N308  1  0.362700  0.637300  0.330730  1.0  -0.5141
  N  N309  1  0.029360  0.970640  0.664070  1.0  -0.5148
  N  N310  1  0.607940  0.303970  0.997400  1.0  -0.5177
  N  N311  1  0.274610  0.637300  0.330730  1.0  -0.5177
  N  N312  1  0.941270  0.970640  0.664070  1.0  -0.5174
  N  N313  1  0.696030  0.392060  0.997400  1.0  -0.5157
  N  N314  1  0.362700  0.725390  0.330730  1.0  -0.5157
  N  N315  1  0.029360  0.058730  0.664070  1.0  -0.5154
