# generated using pymatgen
data_FeAg2H8(C2N)8
_symmetry_space_group_name_H-M   'P 1'
_cell_length_a   26.88240000
_cell_length_b   26.88240000
_cell_length_c   10.20720000
_cell_angle_alpha   90.00000000
_cell_angle_beta   90.00000000
_cell_angle_gamma   120.00000000
_symmetry_Int_Tables_number   1
_chemical_formula_structural   FeAg2H8(C2N)8
_chemical_formula_sum   'Fe9 Ag18 H72 C144 N72'
_cell_volume   6388.12394649
_cell_formula_units_Z   9
loop_
 _symmetry_equiv_pos_site_id
 _symmetry_equiv_pos_as_xyz
  1  'x, y, z'
loop_
 _atom_site_type_symbol
 _atom_site_label
 _atom_site_symmetry_multiplicity
 _atom_site_fract_x
 _atom_site_fract_y
 _atom_site_fract_z
 _atom_site_occupancy
 _atom_site_charge
  Fe  Fe1  1  0.500000  0.000000  0.000000  1.0  0.4838
  Fe  Fe2  1  0.166670  0.333333  0.333333  1.0  0.5036
  Fe  Fe3  1  0.833330  0.666667  0.666667  1.0  0.5035
  Fe  Fe4  1  0.000000  0.500000  0.000000  1.0  0.4838
  Fe  Fe5  1  0.666667  0.833330  0.333333  1.0  0.5041
  Fe  Fe6  1  0.333333  0.166670  0.666667  1.0  0.503
  Fe  Fe7  1  0.500000  0.500000  0.000000  1.0  0.4838
  Fe  Fe8  1  0.166670  0.833330  0.333333  1.0  0.504
  Fe  Fe9  1  0.833330  0.166670  0.666667  1.0  0.503
  Ag  Ag10  1  0.333333  0.964820  0.666667  1.0  0.3655
  Ag  Ag11  1  0.000000  0.298150  0.000000  1.0  0.365
  Ag  Ag12  1  0.035180  0.368520  0.666667  1.0  0.3645
  Ag  Ag13  1  0.701850  0.701850  0.000000  1.0  0.3647
  Ag  Ag14  1  0.631480  0.666667  0.666667  1.0  0.364
  Ag  Ag15  1  0.298150  0.000000  0.000000  1.0  0.3641
  Ag  Ag16  1  0.964820  0.333333  0.333333  1.0  0.3646
  Ag  Ag17  1  0.368520  0.035180  0.333333  1.0  0.3644
  Ag  Ag18  1  0.666667  0.631480  0.333333  1.0  0.365
  Ag  Ag19  1  0.666667  0.035180  0.333333  1.0  0.3656
  Ag  Ag20  1  0.964820  0.631480  0.333333  1.0  0.3643
  Ag  Ag21  1  0.368520  0.333333  0.333333  1.0  0.3653
  Ag  Ag22  1  0.035180  0.666667  0.666667  1.0  0.3655
  Ag  Ag23  1  0.701850  0.000000  0.000000  1.0  0.365
  Ag  Ag24  1  0.631480  0.964820  0.666667  1.0  0.3642
  Ag  Ag25  1  0.298150  0.298150  0.000000  1.0  0.3646
  Ag  Ag26  1  0.333333  0.368520  0.666667  1.0  0.3651
  Ag  Ag27  1  0.000000  0.701850  0.000000  1.0  0.3652
  H  H28  1  0.375800  0.895900  0.009700  1.0  0.0936
  H  H29  1  0.324600  0.797900  0.010300  1.0  0.1297
  H  H30  1  0.042470  0.229230  0.343030  1.0  0.0936
  H  H31  1  0.991270  0.131230  0.343630  1.0  0.1301
  H  H32  1  0.709130  0.562570  0.676370  1.0  0.0936
  H  H33  1  0.657930  0.464570  0.676970  1.0  0.1297
  H  H34  1  0.104100  0.479900  0.009700  1.0  0.0944
  H  H35  1  0.202100  0.526700  0.010300  1.0  0.1296
  H  H36  1  0.770770  0.813230  0.343030  1.0  0.0944
  H  H37  1  0.868770  0.860030  0.343630  1.0  0.1306
  H  H38  1  0.437430  0.146570  0.676370  1.0  0.0944
  H  H39  1  0.535430  0.193370  0.676970  1.0  0.1296
  H  H40  1  0.520100  0.624200  0.009700  1.0  0.0929
  H  H41  1  0.473300  0.675400  0.010300  1.0  0.1303
  H  H42  1  0.186770  0.957530  0.343030  1.0  0.0929
  H  H43  1  0.139970  0.008730  0.343630  1.0  0.1286
  H  H44  1  0.853430  0.290870  0.676370  1.0  0.0929
  H  H45  1  0.806630  0.342070  0.676970  1.0  0.1303
  H  H46  1  0.895900  0.375800  0.990300  1.0  0.0921
  H  H47  1  0.797900  0.324600  0.989700  1.0  0.1279
  H  H48  1  0.562570  0.709130  0.323630  1.0  0.0921
  H  H49  1  0.464570  0.657930  0.323030  1.0  0.1279
  H  H50  1  0.229230  0.042470  0.656970  1.0  0.0921
  H  H51  1  0.131230  0.991270  0.656370  1.0  0.1284
  H  H52  1  0.479900  0.104100  0.990300  1.0  0.0931
  H  H53  1  0.526700  0.202100  0.989700  1.0  0.1301
  H  H54  1  0.146570  0.437430  0.323630  1.0  0.0931
  H  H55  1  0.193370  0.535430  0.323030  1.0  0.1301
  H  H56  1  0.813230  0.770770  0.656970  1.0  0.0931
  H  H57  1  0.860030  0.868770  0.656370  1.0  0.1313
  H  H58  1  0.624200  0.520100  0.990300  1.0  0.0935
  H  H59  1  0.675400  0.473300  0.989700  1.0  0.1317
  H  H60  1  0.290870  0.853430  0.323630  1.0  0.0935
  H  H61  1  0.342070  0.806630  0.323030  1.0  0.1317
  H  H62  1  0.957530  0.186770  0.656970  1.0  0.0935
  H  H63  1  0.008730  0.139970  0.656370  1.0  0.1305
  H  H64  1  0.624200  0.104100  0.990300  1.0  0.0934
  H  H65  1  0.675400  0.202100  0.989700  1.0  0.1297
  H  H66  1  0.290870  0.437430  0.323630  1.0  0.0934
  H  H67  1  0.342070  0.535430  0.323030  1.0  0.1297
  H  H68  1  0.957530  0.770770  0.656970  1.0  0.0934
  H  H69  1  0.008730  0.868770  0.656370  1.0  0.1301
  H  H70  1  0.895900  0.520100  0.990300  1.0  0.0935
  H  H71  1  0.797900  0.473300  0.989700  1.0  0.1305
  H  H72  1  0.562570  0.853430  0.323630  1.0  0.0935
  H  H73  1  0.464570  0.806630  0.323030  1.0  0.1305
  H  H74  1  0.229230  0.186770  0.656970  1.0  0.0935
  H  H75  1  0.131230  0.139970  0.656370  1.0  0.1316
  H  H76  1  0.479900  0.375800  0.990300  1.0  0.0925
  H  H77  1  0.526700  0.324600  0.989700  1.0  0.1303
  H  H78  1  0.146570  0.709130  0.323630  1.0  0.0925
  H  H79  1  0.193370  0.657930  0.323030  1.0  0.1303
  H  H80  1  0.813230  0.042470  0.656970  1.0  0.0925
  H  H81  1  0.860030  0.991270  0.656370  1.0  0.1283
  H  H82  1  0.104100  0.624200  0.009700  1.0  0.0931
  H  H83  1  0.202100  0.675400  0.010300  1.0  0.1284
  H  H84  1  0.770770  0.957530  0.343030  1.0  0.0931
  H  H85  1  0.868770  0.008730  0.343630  1.0  0.1288
  H  H86  1  0.437430  0.290870  0.676370  1.0  0.0931
  H  H87  1  0.535430  0.342070  0.676970  1.0  0.1284
  H  H88  1  0.520100  0.895900  0.009700  1.0  0.094
  H  H89  1  0.473300  0.797900  0.010300  1.0  0.1301
  H  H90  1  0.186770  0.229230  0.343030  1.0  0.094
  H  H91  1  0.139970  0.131230  0.343630  1.0  0.1311
  H  H92  1  0.853430  0.562570  0.676370  1.0  0.094
  H  H93  1  0.806630  0.464570  0.676970  1.0  0.1301
  H  H94  1  0.375800  0.479900  0.009700  1.0  0.0943
  H  H95  1  0.324600  0.526700  0.010300  1.0  0.1308
  H  H96  1  0.042470  0.813230  0.343030  1.0  0.0943
  H  H97  1  0.991270  0.860030  0.343630  1.0  0.1299
  H  H98  1  0.709130  0.146570  0.676370  1.0  0.0943
  H  H99  1  0.657930  0.193370  0.676970  1.0  0.1308
  C  C100  1  0.395600  0.875800  0.009800  1.0  0.1901
  C  C101  1  0.364500  0.816700  0.009500  1.0  -0.1118
  C  C102  1  0.402400  0.990600  0.789400  1.0  -0.0319
  C  C103  1  0.062270  0.209130  0.343130  1.0  0.188
  C  C104  1  0.031170  0.150030  0.342830  1.0  -0.1086
  C  C105  1  0.069070  0.323930  0.122730  1.0  -0.0442
  C  C106  1  0.728930  0.542470  0.676470  1.0  0.1901
  C  C107  1  0.697830  0.483370  0.676170  1.0  -0.1118
  C  C108  1  0.735730  0.657270  0.456070  1.0  -0.0259
  C  C109  1  0.124200  0.519800  0.009800  1.0  0.1883
  C  C110  1  0.183300  0.547800  0.009500  1.0  -0.1091
  C  C111  1  0.009400  0.411800  0.789400  1.0  -0.0338
  C  C112  1  0.790870  0.853130  0.343130  1.0  0.1898
  C  C113  1  0.849970  0.881130  0.342830  1.0  -0.1125
  C  C114  1  0.676070  0.745130  0.122730  1.0  -0.0266
  C  C115  1  0.457530  0.186470  0.676470  1.0  0.1883
  C  C116  1  0.516630  0.214470  0.676170  1.0  -0.1091
  C  C117  1  0.342730  0.078470  0.456070  1.0  -0.0455
  C  C118  1  0.480200  0.604400  0.009800  1.0  0.1921
  C  C119  1  0.452200  0.635500  0.009500  1.0  -0.1147
  C  C120  1  0.588200  0.597600  0.789400  1.0  -0.0275
  C  C121  1  0.146870  0.937730  0.343130  1.0  0.1921
  C  C122  1  0.118870  0.968830  0.342830  1.0  -0.1147
  C  C123  1  0.254870  0.930930  0.122730  1.0  -0.0275
  C  C124  1  0.813530  0.271070  0.676470  1.0  0.1921
  C  C125  1  0.785530  0.302170  0.676170  1.0  -0.1147
  C  C126  1  0.921530  0.264270  0.456070  1.0  -0.0275
  C  C127  1  0.875800  0.395600  0.990200  1.0  0.1916
  C  C128  1  0.816700  0.364500  0.990500  1.0  -0.1147
  C  C129  1  0.990600  0.402400  0.210600  1.0  -0.0335
  C  C130  1  0.542470  0.728930  0.323530  1.0  0.1916
  C  C131  1  0.483370  0.697830  0.323830  1.0  -0.1147
  C  C132  1  0.657270  0.735730  0.543930  1.0  -0.0272
  C  C133  1  0.209130  0.062270  0.656870  1.0  0.1899
  C  C134  1  0.150030  0.031170  0.657170  1.0  -0.1107
  C  C135  1  0.323930  0.069070  0.877270  1.0  -0.0466
  C  C136  1  0.519800  0.124200  0.990200  1.0  0.1895
  C  C137  1  0.547800  0.183300  0.990500  1.0  -0.1095
  C  C138  1  0.411800  0.009400  0.210600  1.0  -0.0323
  C  C139  1  0.186470  0.457530  0.323530  1.0  0.1895
  C  C140  1  0.214470  0.516630  0.323830  1.0  -0.1095
  C  C141  1  0.078470  0.342730  0.543930  1.0  -0.0448
  C  C142  1  0.853130  0.790870  0.656870  1.0  0.1904
  C  C143  1  0.881130  0.849970  0.657170  1.0  -0.1138
  C  C144  1  0.745130  0.676070  0.877270  1.0  -0.0252
  C  C145  1  0.604400  0.480200  0.990200  1.0  0.1906
  C  C146  1  0.635500  0.452200  0.990500  1.0  -0.1138
  C  C147  1  0.597600  0.588200  0.210600  1.0  -0.0264
  C  C148  1  0.271070  0.813530  0.323530  1.0  0.1906
  C  C149  1  0.302170  0.785530  0.323830  1.0  -0.1138
  C  C150  1  0.264270  0.921530  0.543930  1.0  -0.0264
  C  C151  1  0.937730  0.146870  0.656870  1.0  0.1906
  C  C152  1  0.968830  0.118870  0.657170  1.0  -0.1138
  C  C153  1  0.930930  0.254870  0.877270  1.0  -0.0264
  C  C154  1  0.604400  0.124200  0.990200  1.0  0.1905
  C  C155  1  0.635500  0.183300  0.990500  1.0  -0.1144
  C  C156  1  0.597600  0.009400  0.210600  1.0  -0.0322
  C  C157  1  0.271070  0.457530  0.323530  1.0  0.1905
  C  C158  1  0.302170  0.516630  0.323830  1.0  -0.1144
  C  C159  1  0.264270  0.342730  0.543930  1.0  -0.0255
  C  C160  1  0.937730  0.790870  0.656870  1.0  0.1893
  C  C161  1  0.968830  0.849970  0.657170  1.0  -0.1094
  C  C162  1  0.930930  0.676070  0.877270  1.0  -0.0451
  C  C163  1  0.875800  0.480200  0.990200  1.0  0.189
  C  C164  1  0.816700  0.452200  0.990500  1.0  -0.1109
  C  C165  1  0.990600  0.588200  0.210600  1.0  -0.0338
  C  C166  1  0.542470  0.813530  0.323530  1.0  0.189
  C  C167  1  0.483370  0.785530  0.323830  1.0  -0.1109
  C  C168  1  0.657270  0.921530  0.543930  1.0  -0.0462
  C  C169  1  0.209130  0.146870  0.656870  1.0  0.1905
  C  C170  1  0.150030  0.118870  0.657170  1.0  -0.1162
  C  C171  1  0.323930  0.254870  0.877270  1.0  -0.0262
  C  C172  1  0.519800  0.395600  0.990200  1.0  0.1902
  C  C173  1  0.547800  0.364500  0.990500  1.0  -0.1151
  C  C174  1  0.411800  0.402400  0.210600  1.0  -0.0258
  C  C175  1  0.186470  0.728930  0.323530  1.0  0.1902
  C  C176  1  0.214470  0.697830  0.323830  1.0  -0.1151
  C  C177  1  0.078470  0.735730  0.543930  1.0  -0.0258
  C  C178  1  0.853130  0.062270  0.656870  1.0  0.1902
  C  C179  1  0.881130  0.031170  0.657170  1.0  -0.1151
  C  C180  1  0.745130  0.069070  0.877270  1.0  -0.0258
  C  C181  1  0.124200  0.604400  0.009800  1.0  0.1901
  C  C182  1  0.183300  0.635500  0.009500  1.0  -0.1156
  C  C183  1  0.009400  0.597600  0.789400  1.0  -0.0331
  C  C184  1  0.790870  0.937730  0.343130  1.0  0.1883
  C  C185  1  0.849970  0.968830  0.342830  1.0  -0.1125
  C  C186  1  0.676070  0.930930  0.122730  1.0  -0.0453
  C  C187  1  0.457530  0.271070  0.676470  1.0  0.1901
  C  C188  1  0.516630  0.302170  0.676170  1.0  -0.1156
  C  C189  1  0.342730  0.264270  0.456070  1.0  -0.0269
  C  C190  1  0.480200  0.875800  0.009800  1.0  0.1894
  C  C191  1  0.452200  0.816700  0.009500  1.0  -0.1096
  C  C192  1  0.588200  0.990600  0.789400  1.0  -0.0328
  C  C193  1  0.146870  0.209130  0.343130  1.0  0.1907
  C  C194  1  0.118870  0.150030  0.342830  1.0  -0.1128
  C  C195  1  0.254870  0.323930  0.122730  1.0  -0.026
  C  C196  1  0.813530  0.542470  0.676470  1.0  0.1894
  C  C197  1  0.785530  0.483370  0.676170  1.0  -0.1096
  C  C198  1  0.921530  0.657270  0.456070  1.0  -0.0444
  C  C199  1  0.395600  0.519800  0.009800  1.0  0.19
  C  C200  1  0.364500  0.547800  0.009500  1.0  -0.1133
  C  C201  1  0.402400  0.411800  0.789400  1.0  -0.0268
  C  C202  1  0.062270  0.853130  0.343130  1.0  0.19
  C  C203  1  0.031170  0.881130  0.342830  1.0  -0.1133
  C  C204  1  0.069070  0.745130  0.122730  1.0  -0.0268
  C  C205  1  0.728930  0.186470  0.676470  1.0  0.19
  C  C206  1  0.697830  0.214470  0.676170  1.0  -0.1133
  C  C207  1  0.735730  0.078470  0.456070  1.0  -0.0268
  C  C208  1  0.392650  0.785300  0.007900  1.0  -0.0379
  C  C209  1  0.361550  0.723100  0.007600  1.0  0.4013
  C  C210  1  0.059320  0.118630  0.341230  1.0  -0.0379
  C  C211  1  0.028220  0.056430  0.340930  1.0  0.4012
  C  C212  1  0.725980  0.451970  0.674570  1.0  -0.0379
  C  C213  1  0.694880  0.389770  0.674270  1.0  0.4013
  C  C214  1  0.214700  0.607350  0.007900  1.0  -0.0392
  C  C215  1  0.276900  0.638450  0.007600  1.0  0.4011
  C  C216  1  0.881370  0.940680  0.341230  1.0  -0.0392
  C  C217  1  0.943570  0.971780  0.340930  1.0  0.401
  C  C218  1  0.548030  0.274020  0.674570  1.0  -0.0392
  C  C219  1  0.610230  0.305120  0.674270  1.0  0.4011
  C  C220  1  0.392650  0.607350  0.007900  1.0  -0.0408
  C  C221  1  0.361550  0.638450  0.007600  1.0  0.4038
  C  C222  1  0.059320  0.940680  0.341230  1.0  -0.0408
  C  C223  1  0.028220  0.971780  0.340930  1.0  0.3996
  C  C224  1  0.725980  0.274020  0.674570  1.0  -0.0408
  C  C225  1  0.694880  0.305120  0.674270  1.0  0.4038
  C  C226  1  0.785300  0.392650  0.992100  1.0  -0.0419
  C  C227  1  0.723100  0.361550  0.992400  1.0  0.4055
  C  C228  1  0.451970  0.725980  0.325430  1.0  -0.0419
  C  C229  1  0.389770  0.694880  0.325730  1.0  0.4055
  C  C230  1  0.118630  0.059320  0.658770  1.0  -0.0418
  C  C231  1  0.056430  0.028220  0.659070  1.0  0.4053
  C  C232  1  0.607350  0.214700  0.992100  1.0  -0.0381
  C  C233  1  0.638450  0.276900  0.992400  1.0  0.406
  C  C234  1  0.274020  0.548030  0.325430  1.0  -0.0381
  C  C235  1  0.305120  0.610230  0.325730  1.0  0.406
  C  C236  1  0.940680  0.881370  0.658770  1.0  -0.0381
  C  C237  1  0.971780  0.943570  0.659070  1.0  0.4059
  C  C238  1  0.607350  0.392650  0.992100  1.0  -0.041
  C  C239  1  0.638450  0.361550  0.992400  1.0  0.4093
  C  C240  1  0.274020  0.725980  0.325430  1.0  -0.041
  C  C241  1  0.305120  0.694880  0.325730  1.0  0.4093
  C  C242  1  0.940680  0.059320  0.658770  1.0  -0.041
  C  C243  1  0.971780  0.028220  0.659070  1.0  0.4057
  N  N244  1  0.439900  0.998100  0.857000  1.0  -0.3484
  N  N245  1  0.106570  0.331430  0.190330  1.0  -0.3455
  N  N246  1  0.773230  0.664770  0.523670  1.0  -0.3576
  N  N247  1  0.001900  0.441800  0.857000  1.0  -0.3472
  N  N248  1  0.668570  0.775130  0.190330  1.0  -0.3594
  N  N249  1  0.335230  0.108470  0.523670  1.0  -0.3465
  N  N250  1  0.558200  0.560100  0.857000  1.0  -0.3603
  N  N251  1  0.224870  0.893430  0.190330  1.0  -0.3605
  N  N252  1  0.891530  0.226770  0.523670  1.0  -0.3603
  N  N253  1  0.998100  0.439900  0.143000  1.0  -0.3503
  N  N254  1  0.664770  0.773230  0.476330  1.0  -0.3591
  N  N255  1  0.331430  0.106570  0.809670  1.0  -0.3492
  N  N256  1  0.441800  0.001900  0.143000  1.0  -0.3462
  N  N257  1  0.108470  0.335230  0.476330  1.0  -0.3456
  N  N258  1  0.775130  0.668570  0.809670  1.0  -0.3571
  N  N259  1  0.560100  0.558200  0.143000  1.0  -0.3574
  N  N260  1  0.226770  0.891530  0.476330  1.0  -0.3574
  N  N261  1  0.893430  0.224870  0.809670  1.0  -0.3576
  N  N262  1  0.560100  0.001900  0.143000  1.0  -0.3483
  N  N263  1  0.226770  0.335230  0.476330  1.0  -0.3569
  N  N264  1  0.893430  0.668570  0.809670  1.0  -0.3453
  N  N265  1  0.998100  0.558200  0.143000  1.0  -0.3462
  N  N266  1  0.664770  0.891530  0.476330  1.0  -0.3454
  N  N267  1  0.331430  0.224870  0.809670  1.0  -0.3566
  N  N268  1  0.441800  0.439900  0.143000  1.0  -0.36
  N  N269  1  0.108470  0.773230  0.476330  1.0  -0.36
  N  N270  1  0.775130  0.106570  0.809670  1.0  -0.3601
  N  N271  1  0.001900  0.560100  0.857000  1.0  -0.3512
  N  N272  1  0.668570  0.893430  0.190330  1.0  -0.3473
  N  N273  1  0.335230  0.226770  0.523670  1.0  -0.3607
  N  N274  1  0.558200  0.998100  0.857000  1.0  -0.3471
  N  N275  1  0.224870  0.331430  0.190330  1.0  -0.3589
  N  N276  1  0.891530  0.664770  0.523670  1.0  -0.3455
  N  N277  1  0.439900  0.441800  0.857000  1.0  -0.3576
  N  N278  1  0.106570  0.775130  0.190330  1.0  -0.3578
  N  N279  1  0.773230  0.108470  0.523670  1.0  -0.3576
  N  N280  1  0.452650  0.905300  0.010200  1.0  -0.2967
  N  N281  1  0.119320  0.238630  0.343530  1.0  -0.2967
  N  N282  1  0.785980  0.571970  0.676870  1.0  -0.2967
  N  N283  1  0.094700  0.547350  0.010200  1.0  -0.2914
  N  N284  1  0.761370  0.880680  0.343530  1.0  -0.2914
  N  N285  1  0.428030  0.214020  0.676870  1.0  -0.2914
  N  N286  1  0.452650  0.547350  0.010200  1.0  -0.2837
  N  N287  1  0.119320  0.880680  0.343530  1.0  -0.2837
  N  N288  1  0.785980  0.214020  0.676870  1.0  -0.2837
  N  N289  1  0.905300  0.452650  0.989800  1.0  -0.2888
  N  N290  1  0.571970  0.785980  0.323130  1.0  -0.2888
  N  N291  1  0.238630  0.119320  0.656470  1.0  -0.2888
  N  N292  1  0.547350  0.094700  0.989800  1.0  -0.2965
  N  N293  1  0.214020  0.428030  0.323130  1.0  -0.2965
  N  N294  1  0.880680  0.761370  0.656470  1.0  -0.2966
  N  N295  1  0.547350  0.452650  0.989800  1.0  -0.2859
  N  N296  1  0.214020  0.785980  0.323130  1.0  -0.2859
  N  N297  1  0.880680  0.119320  0.656470  1.0  -0.2859
  N  N298  1  0.304020  0.695980  0.005800  1.0  -0.5177
  N  N299  1  0.970690  0.029310  0.339130  1.0  -0.5174
  N  N300  1  0.637350  0.362650  0.672470  1.0  -0.5177
  N  N301  1  0.304020  0.608040  0.005800  1.0  -0.5164
  N  N302  1  0.970690  0.941370  0.339130  1.0  -0.5166
  N  N303  1  0.637350  0.274710  0.672470  1.0  -0.5164
  N  N304  1  0.391960  0.695980  0.005800  1.0  -0.5169
  N  N305  1  0.058630  0.029310  0.339130  1.0  -0.5171
  N  N306  1  0.725290  0.362650  0.672470  1.0  -0.5169
  N  N307  1  0.695980  0.304020  0.994200  1.0  -0.5154
  N  N308  1  0.362650  0.637350  0.327530  1.0  -0.5154
  N  N309  1  0.029310  0.970690  0.660870  1.0  -0.5151
  N  N310  1  0.608040  0.304020  0.994200  1.0  -0.5193
  N  N311  1  0.274710  0.637350  0.327530  1.0  -0.5193
  N  N312  1  0.941370  0.970690  0.660870  1.0  -0.5195
  N  N313  1  0.695980  0.391960  0.994200  1.0  -0.5166
  N  N314  1  0.362650  0.725290  0.327530  1.0  -0.5166
  N  N315  1  0.029310  0.058630  0.660870  1.0  -0.5168
