# generated using pymatgen
data_FeH8Au2(C2N)8
_symmetry_space_group_name_H-M   'P 1'
_cell_length_a   26.90100000
_cell_length_b   26.90100000
_cell_length_c   9.77420000
_cell_angle_alpha   90.00000000
_cell_angle_beta   90.00000000
_cell_angle_gamma   120.00000000
_symmetry_Int_Tables_number   1
_chemical_formula_structural   FeH8Au2(C2N)8
_chemical_formula_sum   'Fe9 H72 Au18 C144 N72'
_cell_volume   6125.60095768
_cell_formula_units_Z   9
loop_
 _symmetry_equiv_pos_site_id
 _symmetry_equiv_pos_as_xyz
  1  'x, y, z'
loop_
 _atom_site_type_symbol
 _atom_site_label
 _atom_site_symmetry_multiplicity
 _atom_site_fract_x
 _atom_site_fract_y
 _atom_site_fract_z
 _atom_site_occupancy
 _atom_site_charge
  Fe  Fe1  1  0.500000  0.000000  0.000000  1.0  0.4779
  Fe  Fe2  1  0.166670  0.333333  0.333333  1.0  0.4959
  Fe  Fe3  1  0.833330  0.666667  0.666667  1.0  0.4959
  Fe  Fe4  1  0.000000  0.500000  0.000000  1.0  0.4779
  Fe  Fe5  1  0.666667  0.833330  0.333333  1.0  0.4965
  Fe  Fe6  1  0.333333  0.166670  0.666667  1.0  0.4952
  Fe  Fe7  1  0.500000  0.500000  0.000000  1.0  0.4779
  Fe  Fe8  1  0.166670  0.833330  0.333333  1.0  0.4965
  Fe  Fe9  1  0.833330  0.166670  0.666667  1.0  0.4952
  H  H10  1  0.624200  0.103900  0.999700  1.0  0.1039
  H  H11  1  0.675500  0.202700  0.999700  1.0  0.1423
  H  H12  1  0.290870  0.437230  0.333030  1.0  0.1039
  H  H13  1  0.342170  0.536030  0.333030  1.0  0.1423
  H  H14  1  0.957530  0.770570  0.666370  1.0  0.1039
  H  H15  1  0.008830  0.869370  0.666370  1.0  0.1422
  H  H16  1  0.896100  0.520300  0.999700  1.0  0.1029
  H  H17  1  0.797300  0.472800  0.999700  1.0  0.1414
  H  H18  1  0.562770  0.853630  0.333030  1.0  0.1029
  H  H19  1  0.463970  0.806130  0.333030  1.0  0.1414
  H  H20  1  0.229430  0.186970  0.666370  1.0  0.1029
  H  H21  1  0.130630  0.139470  0.666370  1.0  0.1435
  H  H22  1  0.479700  0.375800  0.999700  1.0  0.1033
  H  H23  1  0.527200  0.324500  0.999700  1.0  0.1425
  H  H24  1  0.146370  0.709130  0.333030  1.0  0.1033
  H  H25  1  0.193870  0.657830  0.333030  1.0  0.1425
  H  H26  1  0.813030  0.042470  0.666370  1.0  0.1033
  H  H27  1  0.860530  0.991170  0.666370  1.0  0.1394
  H  H28  1  0.103900  0.624200  0.000300  1.0  0.1029
  H  H29  1  0.202700  0.675500  0.000300  1.0  0.1395
  H  H30  1  0.770570  0.957530  0.333630  1.0  0.1029
  H  H31  1  0.869370  0.008830  0.333630  1.0  0.1391
  H  H32  1  0.437230  0.290870  0.666970  1.0  0.1029
  H  H33  1  0.536030  0.342170  0.666970  1.0  0.1395
  H  H34  1  0.520300  0.896100  0.000300  1.0  0.1036
  H  H35  1  0.472800  0.797300  0.000300  1.0  0.1423
  H  H36  1  0.186970  0.229430  0.333630  1.0  0.1036
  H  H37  1  0.139470  0.130630  0.333630  1.0  0.1442
  H  H38  1  0.853630  0.562770  0.666970  1.0  0.1036
  H  H39  1  0.806130  0.463970  0.666970  1.0  0.1423
  H  H40  1  0.375800  0.479700  0.000300  1.0  0.1037
  H  H41  1  0.324500  0.527200  0.000300  1.0  0.1429
  H  H42  1  0.042470  0.813030  0.333630  1.0  0.1037
  H  H43  1  0.991170  0.860530  0.333630  1.0  0.141
  H  H44  1  0.709130  0.146370  0.666970  1.0  0.1037
  H  H45  1  0.657830  0.193870  0.666970  1.0  0.1429
  H  H46  1  0.375800  0.896100  0.000300  1.0  0.1034
  H  H47  1  0.324500  0.797300  0.000300  1.0  0.1418
  H  H48  1  0.042470  0.229430  0.333630  1.0  0.1034
  H  H49  1  0.991170  0.130630  0.333630  1.0  0.1418
  H  H50  1  0.709130  0.562770  0.666970  1.0  0.1034
  H  H51  1  0.657830  0.463970  0.666970  1.0  0.1418
  H  H52  1  0.103900  0.479700  0.000300  1.0  0.1039
  H  H53  1  0.202700  0.527200  0.000300  1.0  0.1409
  H  H54  1  0.770570  0.813030  0.333630  1.0  0.1039
  H  H55  1  0.869370  0.860530  0.333630  1.0  0.1429
  H  H56  1  0.437230  0.146370  0.666970  1.0  0.1039
  H  H57  1  0.536030  0.193870  0.666970  1.0  0.1409
  H  H58  1  0.520300  0.624200  0.000300  1.0  0.1023
  H  H59  1  0.472800  0.675500  0.000300  1.0  0.1427
  H  H60  1  0.186970  0.957530  0.333630  1.0  0.1023
  H  H61  1  0.139470  0.008830  0.333630  1.0  0.1395
  H  H62  1  0.853630  0.290870  0.666970  1.0  0.1023
  H  H63  1  0.806130  0.342170  0.666970  1.0  0.1427
  H  H64  1  0.896100  0.375800  0.999700  1.0  0.1024
  H  H65  1  0.797300  0.324500  0.999700  1.0  0.1391
  H  H66  1  0.562770  0.709130  0.333030  1.0  0.1024
  H  H67  1  0.463970  0.657830  0.333030  1.0  0.1391
  H  H68  1  0.229430  0.042470  0.666370  1.0  0.1024
  H  H69  1  0.130630  0.991170  0.666370  1.0  0.1387
  H  H70  1  0.479700  0.103900  0.999700  1.0  0.1037
  H  H71  1  0.527200  0.202700  0.999700  1.0  0.1423
  H  H72  1  0.146370  0.437230  0.333030  1.0  0.1037
  H  H73  1  0.193870  0.536030  0.333030  1.0  0.1423
  H  H74  1  0.813030  0.770570  0.666370  1.0  0.1037
  H  H75  1  0.860530  0.869370  0.666370  1.0  0.1447
  H  H76  1  0.624200  0.520300  0.999700  1.0  0.103
  H  H77  1  0.675500  0.472800  0.999700  1.0  0.1439
  H  H78  1  0.290870  0.853630  0.333030  1.0  0.103
  H  H79  1  0.342170  0.806130  0.333030  1.0  0.1439
  H  H80  1  0.957530  0.186970  0.666370  1.0  0.103
  H  H81  1  0.008830  0.139470  0.666370  1.0  0.1421
  Au  Au82  1  0.666667  0.039910  0.333333  1.0  0.1718
  Au  Au83  1  0.960090  0.626750  0.333333  1.0  0.1722
  Au  Au84  1  0.373250  0.333333  0.333333  1.0  0.1711
  Au  Au85  1  0.039910  0.666667  0.666667  1.0  0.1711
  Au  Au86  1  0.706580  0.000000  0.000000  1.0  0.1711
  Au  Au87  1  0.626750  0.960090  0.666667  1.0  0.1719
  Au  Au88  1  0.293420  0.293420  0.000000  1.0  0.1718
  Au  Au89  1  0.333333  0.373250  0.666667  1.0  0.1717
  Au  Au90  1  0.000000  0.706580  0.000000  1.0  0.1718
  Au  Au91  1  0.333333  0.960090  0.666667  1.0  0.1712
  Au  Au92  1  0.000000  0.293420  0.000000  1.0  0.1712
  Au  Au93  1  0.039910  0.373250  0.666667  1.0  0.1711
  Au  Au94  1  0.706580  0.706580  0.000000  1.0  0.1708
  Au  Au95  1  0.626750  0.666667  0.666667  1.0  0.1725
  Au  Au96  1  0.293420  0.000000  0.000000  1.0  0.1726
  Au  Au97  1  0.960090  0.333333  0.333333  1.0  0.1726
  Au  Au98  1  0.373250  0.039910  0.333333  1.0  0.1711
  Au  Au99  1  0.666667  0.626750  0.333333  1.0  0.1712
  C  C100  1  0.604400  0.124000  0.999800  1.0  0.1854
  C  C101  1  0.635600  0.183500  0.999700  1.0  -0.1081
  C  C102  1  0.597100  0.010300  0.217800  1.0  0.046
  C  C103  1  0.271070  0.457330  0.333130  1.0  0.1854
  C  C104  1  0.302270  0.516830  0.333030  1.0  -0.1081
  C  C105  1  0.263770  0.343630  0.551130  1.0  0.046
  C  C106  1  0.937730  0.790670  0.666470  1.0  0.1903
  C  C107  1  0.968930  0.850170  0.666370  1.0  -0.0985
  C  C108  1  0.930430  0.676970  0.884470  1.0  0.0441
  C  C109  1  0.876000  0.480400  0.999800  1.0  0.1893
  C  C110  1  0.816500  0.452100  0.999700  1.0  -0.0977
  C  C111  1  0.989700  0.586800  0.217800  1.0  0.0438
  C  C112  1  0.542670  0.813730  0.333130  1.0  0.1893
  C  C113  1  0.483170  0.785430  0.333030  1.0  -0.0977
  C  C114  1  0.656370  0.920130  0.551130  1.0  0.0439
  C  C115  1  0.209330  0.147070  0.666470  1.0  0.185
  C  C116  1  0.149830  0.118770  0.666370  1.0  -0.1079
  C  C117  1  0.323030  0.253470  0.884470  1.0  0.0443
  C  C118  1  0.519600  0.395600  0.999800  1.0  0.1855
  C  C119  1  0.547900  0.364400  0.999700  1.0  -0.1079
  C  C120  1  0.413200  0.402900  0.217800  1.0  0.0451
  C  C121  1  0.186270  0.728930  0.333130  1.0  0.1855
  C  C122  1  0.214570  0.697730  0.333030  1.0  -0.1079
  C  C123  1  0.079870  0.736230  0.551130  1.0  0.0451
  C  C124  1  0.852930  0.062270  0.666470  1.0  0.1855
  C  C125  1  0.881230  0.031070  0.666370  1.0  -0.1079
  C  C126  1  0.746530  0.069570  0.884470  1.0  0.0451
  C  C127  1  0.124000  0.604400  0.000200  1.0  0.1861
  C  C128  1  0.183500  0.635600  0.000300  1.0  -0.1072
  C  C129  1  0.010300  0.597100  0.782200  1.0  0.0443
  C  C130  1  0.790670  0.937730  0.333530  1.0  0.1901
  C  C131  1  0.850170  0.968930  0.333630  1.0  -0.0999
  C  C132  1  0.676970  0.930430  0.115530  1.0  0.0427
  C  C133  1  0.457330  0.271070  0.666870  1.0  0.1861
  C  C134  1  0.516830  0.302270  0.666970  1.0  -0.1072
  C  C135  1  0.343630  0.263770  0.448870  1.0  0.0443
  C  C136  1  0.480400  0.876000  0.000200  1.0  0.1905
  C  C137  1  0.452100  0.816500  0.000300  1.0  -0.0985
  C  C138  1  0.586800  0.989700  0.782200  1.0  0.0454
  C  C139  1  0.147070  0.209330  0.333530  1.0  0.1857
  C  C140  1  0.118770  0.149830  0.333630  1.0  -0.1076
  C  C141  1  0.253470  0.323030  0.115530  1.0  0.0464
  C  C142  1  0.813730  0.542670  0.666870  1.0  0.1905
  C  C143  1  0.785430  0.483170  0.666970  1.0  -0.0985
  C  C144  1  0.920130  0.656370  0.448870  1.0  0.0454
  C  C145  1  0.395600  0.519600  0.000200  1.0  0.183
  C  C146  1  0.364400  0.547900  0.000300  1.0  -0.1057
  C  C147  1  0.402900  0.413200  0.782200  1.0  0.0456
  C  C148  1  0.062270  0.852930  0.333530  1.0  0.183
  C  C149  1  0.031070  0.881230  0.333630  1.0  -0.1057
  C  C150  1  0.069570  0.746530  0.115530  1.0  0.0456
  C  C151  1  0.728930  0.186270  0.666870  1.0  0.183
  C  C152  1  0.697730  0.214570  0.666970  1.0  -0.1057
  C  C153  1  0.736230  0.079870  0.448870  1.0  0.0456
  C  C154  1  0.395600  0.876000  0.000200  1.0  0.1895
  C  C155  1  0.364400  0.816500  0.000300  1.0  -0.106
  C  C156  1  0.402900  0.989700  0.782200  1.0  0.0465
  C  C157  1  0.062270  0.209330  0.333530  1.0  0.1942
  C  C158  1  0.031070  0.149830  0.333630  1.0  -0.0979
  C  C159  1  0.069570  0.323030  0.115530  1.0  0.046
  C  C160  1  0.728930  0.542670  0.666870  1.0  0.1895
  C  C161  1  0.697730  0.483170  0.666970  1.0  -0.106
  C  C162  1  0.736230  0.656370  0.448870  1.0  0.0465
  C  C163  1  0.124000  0.519600  0.000200  1.0  0.1926
  C  C164  1  0.183500  0.547900  0.000300  1.0  -0.0973
  C  C165  1  0.010300  0.413200  0.782200  1.0  0.0441
  C  C166  1  0.790670  0.852930  0.333530  1.0  0.1867
  C  C167  1  0.850170  0.881230  0.333630  1.0  -0.1063
  C  C168  1  0.676970  0.746530  0.115530  1.0  0.0453
  C  C169  1  0.457330  0.186270  0.666870  1.0  0.1926
  C  C170  1  0.516830  0.214570  0.666970  1.0  -0.0973
  C  C171  1  0.343630  0.079870  0.448870  1.0  0.0442
  C  C172  1  0.480400  0.604400  0.000200  1.0  0.1892
  C  C173  1  0.452100  0.635600  0.000300  1.0  -0.1068
  C  C174  1  0.586800  0.597100  0.782200  1.0  0.0446
  C  C175  1  0.147070  0.937730  0.333530  1.0  0.1892
  C  C176  1  0.118770  0.968930  0.333630  1.0  -0.1068
  C  C177  1  0.253470  0.930430  0.115530  1.0  0.0446
  C  C178  1  0.813730  0.271070  0.666870  1.0  0.1892
  C  C179  1  0.785430  0.302270  0.666970  1.0  -0.1068
  C  C180  1  0.920130  0.263770  0.448870  1.0  0.0446
  C  C181  1  0.876000  0.395600  0.999800  1.0  0.1888
  C  C182  1  0.816500  0.364400  0.999700  1.0  -0.1066
  C  C183  1  0.989700  0.402900  0.217800  1.0  0.0455
  C  C184  1  0.542670  0.728930  0.333130  1.0  0.1888
  C  C185  1  0.483170  0.697730  0.333030  1.0  -0.1066
  C  C186  1  0.656370  0.736230  0.551130  1.0  0.0455
  C  C187  1  0.209330  0.062270  0.666470  1.0  0.1955
  C  C188  1  0.149830  0.031070  0.666370  1.0  -0.0978
  C  C189  1  0.323030  0.069570  0.884470  1.0  0.0436
  C  C190  1  0.519600  0.124000  0.999800  1.0  0.1939
  C  C191  1  0.547900  0.183500  0.999700  1.0  -0.0985
  C  C192  1  0.413200  0.010300  0.217800  1.0  0.0458
  C  C193  1  0.186270  0.457330  0.333130  1.0  0.1939
  C  C194  1  0.214570  0.516830  0.333030  1.0  -0.0985
  C  C195  1  0.079870  0.343630  0.551130  1.0  0.0458
  C  C196  1  0.852930  0.790670  0.666470  1.0  0.1894
  C  C197  1  0.881230  0.850170  0.666370  1.0  -0.107
  C  C198  1  0.746530  0.676970  0.884470  1.0  0.0462
  C  C199  1  0.604400  0.480400  0.999800  1.0  0.1889
  C  C200  1  0.635600  0.452100  0.999700  1.0  -0.1066
  C  C201  1  0.597100  0.586800  0.217800  1.0  0.044
  C  C202  1  0.271070  0.813730  0.333130  1.0  0.1889
  C  C203  1  0.302270  0.785430  0.333030  1.0  -0.1066
  C  C204  1  0.263770  0.920130  0.551130  1.0  0.044
  C  C205  1  0.937730  0.147070  0.666470  1.0  0.1889
  C  C206  1  0.968930  0.118770  0.666370  1.0  -0.1072
  C  C207  1  0.930430  0.253470  0.884470  1.0  0.044
  C  C208  1  0.606800  0.213600  0.999500  1.0  0.0006
  C  C209  1  0.638600  0.277200  0.998500  1.0  0.4243
  C  C210  1  0.273470  0.546930  0.332830  1.0  0.0006
  C  C211  1  0.305270  0.610530  0.331830  1.0  0.4243
  C  C212  1  0.940130  0.880270  0.666170  1.0  0.0084
  C  C213  1  0.971930  0.943870  0.665170  1.0  0.4249
  C  C214  1  0.786400  0.393200  0.999500  1.0  -0.0022
  C  C215  1  0.722800  0.361400  0.998500  1.0  0.4232
  C  C216  1  0.453070  0.726530  0.332830  1.0  -0.0022
  C  C217  1  0.389470  0.694730  0.331830  1.0  0.4232
  C  C218  1  0.119730  0.059870  0.666170  1.0  0.0062
  C  C219  1  0.056130  0.028070  0.665170  1.0  0.4242
  C  C220  1  0.606800  0.393200  0.999500  1.0  0.0037
  C  C221  1  0.638600  0.361400  0.998500  1.0  0.423
  C  C222  1  0.273470  0.726530  0.332830  1.0  0.0037
  C  C223  1  0.305270  0.694730  0.331830  1.0  0.423
  C  C224  1  0.940130  0.059870  0.666170  1.0  0.0038
  C  C225  1  0.971930  0.028070  0.665170  1.0  0.424
  C  C226  1  0.213600  0.606800  0.000500  1.0  -0.0006
  C  C227  1  0.277200  0.638600  0.001500  1.0  0.4188
  C  C228  1  0.880270  0.940130  0.333830  1.0  0.0071
  C  C229  1  0.943870  0.971930  0.334830  1.0  0.4185
  C  C230  1  0.546930  0.273470  0.667170  1.0  -0.0006
  C  C231  1  0.610530  0.305270  0.668170  1.0  0.4188
  C  C232  1  0.393200  0.786400  0.000500  1.0  -0.0003
  C  C233  1  0.361400  0.722800  0.001500  1.0  0.4198
  C  C234  1  0.059870  0.119730  0.333830  1.0  0.0065
  C  C235  1  0.028070  0.056130  0.334830  1.0  0.4196
  C  C236  1  0.726530  0.453070  0.667170  1.0  -0.0003
  C  C237  1  0.694730  0.389470  0.668170  1.0  0.4198
  C  C238  1  0.393200  0.606800  0.000500  1.0  0.0029
  C  C239  1  0.361400  0.638600  0.001500  1.0  0.4175
  C  C240  1  0.059870  0.940130  0.333830  1.0  0.003
  C  C241  1  0.028070  0.971930  0.334830  1.0  0.4184
  C  C242  1  0.726530  0.273470  0.667170  1.0  0.0029
  C  C243  1  0.694730  0.305270  0.668170  1.0  0.4175
  N  N244  1  0.558000  0.999200  0.152100  1.0  -0.3901
  N  N245  1  0.224670  0.332530  0.485430  1.0  -0.3982
  N  N246  1  0.891330  0.665870  0.818770  1.0  -0.3901
  N  N247  1  0.000800  0.558800  0.152100  1.0  -0.3992
  N  N248  1  0.667470  0.892130  0.485430  1.0  -0.3915
  N  N249  1  0.334130  0.225470  0.818770  1.0  -0.3992
  N  N250  1  0.441200  0.442000  0.152100  1.0  -0.3997
  N  N251  1  0.107870  0.775330  0.485430  1.0  -0.3998
  N  N252  1  0.774530  0.108670  0.818770  1.0  -0.3997
  N  N253  1  0.999200  0.558000  0.847900  1.0  -0.3908
  N  N254  1  0.665870  0.891330  0.181230  1.0  -0.3908
  N  N255  1  0.332530  0.224670  0.514570  1.0  -0.3989
  N  N256  1  0.558800  0.000800  0.847900  1.0  -0.3972
  N  N257  1  0.225470  0.334130  0.181230  1.0  -0.3972
  N  N258  1  0.892130  0.667470  0.514570  1.0  -0.3896
  N  N259  1  0.442000  0.441200  0.847900  1.0  -0.3973
  N  N260  1  0.108670  0.774530  0.181230  1.0  -0.3973
  N  N261  1  0.775330  0.107870  0.514570  1.0  -0.3974
  N  N262  1  0.442000  0.000800  0.847900  1.0  -0.39
  N  N263  1  0.108670  0.334130  0.181230  1.0  -0.39
  N  N264  1  0.775330  0.667470  0.514570  1.0  -0.3981
  N  N265  1  0.999200  0.441200  0.847900  1.0  -0.3977
  N  N266  1  0.665870  0.774530  0.181230  1.0  -0.3977
  N  N267  1  0.332530  0.107870  0.514570  1.0  -0.3906
  N  N268  1  0.558800  0.558000  0.847900  1.0  -0.3988
  N  N269  1  0.225470  0.891330  0.181230  1.0  -0.3988
  N  N270  1  0.892130  0.224670  0.514570  1.0  -0.3989
  N  N271  1  0.000800  0.442000  0.152100  1.0  -0.3916
  N  N272  1  0.667470  0.775330  0.485430  1.0  -0.3995
  N  N273  1  0.334130  0.108670  0.818770  1.0  -0.3916
  N  N274  1  0.441200  0.999200  0.152100  1.0  -0.3994
  N  N275  1  0.107870  0.332530  0.485430  1.0  -0.3918
  N  N276  1  0.774530  0.665870  0.818770  1.0  -0.3994
  N  N277  1  0.558000  0.558800  0.152100  1.0  -0.3988
  N  N278  1  0.224670  0.892130  0.485430  1.0  -0.3989
  N  N279  1  0.891330  0.225470  0.818770  1.0  -0.3988
  N  N280  1  0.547150  0.094300  0.000200  1.0  -0.2997
  N  N281  1  0.213820  0.427630  0.333530  1.0  -0.2997
  N  N282  1  0.880480  0.760970  0.666870  1.0  -0.2997
  N  N283  1  0.905700  0.452850  0.000200  1.0  -0.291
  N  N284  1  0.572370  0.786180  0.333530  1.0  -0.291
  N  N285  1  0.239030  0.119520  0.666870  1.0  -0.291
  N  N286  1  0.547150  0.452850  0.000200  1.0  -0.2822
  N  N287  1  0.213820  0.786180  0.333530  1.0  -0.2822
  N  N288  1  0.880480  0.119520  0.666870  1.0  -0.2822
  N  N289  1  0.094300  0.547150  0.999800  1.0  -0.2926
  N  N290  1  0.760970  0.880480  0.333130  1.0  -0.2926
  N  N291  1  0.427630  0.213820  0.666470  1.0  -0.2926
  N  N292  1  0.452850  0.905700  0.999800  1.0  -0.3001
  N  N293  1  0.119520  0.239030  0.333130  1.0  -0.3001
  N  N294  1  0.786180  0.572370  0.666470  1.0  -0.3001
  N  N295  1  0.452850  0.547150  0.999800  1.0  -0.2808
  N  N296  1  0.119520  0.880480  0.333130  1.0  -0.2808
  N  N297  1  0.786180  0.213820  0.666470  1.0  -0.2808
  N  N298  1  0.696090  0.303910  0.999600  1.0  -0.5054
  N  N299  1  0.362760  0.637240  0.332930  1.0  -0.5054
  N  N300  1  0.029420  0.970580  0.666270  1.0  -0.5048
  N  N301  1  0.696090  0.392180  0.999600  1.0  -0.507
  N  N302  1  0.362760  0.725510  0.332930  1.0  -0.507
  N  N303  1  0.029420  0.058850  0.666270  1.0  -0.5083
  N  N304  1  0.607820  0.303910  0.999600  1.0  -0.5086
  N  N305  1  0.274490  0.637240  0.332930  1.0  -0.5086
  N  N306  1  0.941150  0.970580  0.666270  1.0  -0.5097
  N  N307  1  0.303910  0.696090  0.000400  1.0  -0.5059
  N  N308  1  0.970580  0.029420  0.333730  1.0  -0.5057
  N  N309  1  0.637240  0.362760  0.667070  1.0  -0.5059
  N  N310  1  0.392180  0.696090  0.000400  1.0  -0.5055
  N  N311  1  0.058850  0.029420  0.333730  1.0  -0.5049
  N  N312  1  0.725510  0.362760  0.667070  1.0  -0.5055
  N  N313  1  0.303910  0.607820  0.000400  1.0  -0.505
  N  N314  1  0.970580  0.941150  0.333730  1.0  -0.5046
  N  N315  1  0.637240  0.274490  0.667070  1.0  -0.505
