# generated using pymatgen
data_FeH8Au2(C2N)8
_symmetry_space_group_name_H-M   'P 1'
_cell_length_a   26.40130000
_cell_length_b   26.40130000
_cell_length_c   9.66620000
_cell_angle_alpha   90.00000000
_cell_angle_beta   90.00000000
_cell_angle_gamma   120.00000000
_symmetry_Int_Tables_number   1
_chemical_formula_structural   FeH8Au2(C2N)8
_chemical_formula_sum   'Fe9 H72 Au18 C144 N72'
_cell_volume   5834.94857096
_cell_formula_units_Z   9
loop_
 _symmetry_equiv_pos_site_id
 _symmetry_equiv_pos_as_xyz
  1  'x, y, z'
loop_
 _atom_site_type_symbol
 _atom_site_label
 _atom_site_symmetry_multiplicity
 _atom_site_fract_x
 _atom_site_fract_y
 _atom_site_fract_z
 _atom_site_occupancy
 _atom_site_charge
  Fe  Fe1  1  0.333333  0.166670  0.666667  1.0  0.7601
  Fe  Fe2  1  0.000000  0.500000  0.000000  1.0  0.7412
  Fe  Fe3  1  0.833330  0.166670  0.666667  1.0  0.76
  Fe  Fe4  1  0.500000  0.500000  0.000000  1.0  0.7412
  Fe  Fe5  1  0.833330  0.666667  0.666667  1.0  0.7601
  Fe  Fe6  1  0.500000  0.000000  0.000000  1.0  0.7412
  Fe  Fe7  1  0.166670  0.333333  0.333333  1.0  0.7604
  Fe  Fe8  1  0.166670  0.833330  0.333333  1.0  0.7611
  Fe  Fe9  1  0.666667  0.833330  0.333333  1.0  0.7604
  H  H10  1  0.433200  0.143500  0.680600  1.0  0.0985
  H  H11  1  0.532300  0.190400  0.668300  1.0  0.1493
  H  H12  1  0.099870  0.476830  0.013930  1.0  0.0985
  H  H13  1  0.198970  0.523730  0.001630  1.0  0.1501
  H  H14  1  0.766530  0.810170  0.347270  1.0  0.0985
  H  H15  1  0.865630  0.857070  0.334970  1.0  0.1472
  H  H16  1  0.856500  0.289700  0.680600  1.0  0.0998
  H  H17  1  0.809600  0.341900  0.668300  1.0  0.1463
  H  H18  1  0.523170  0.623030  0.013930  1.0  0.0999
  H  H19  1  0.476270  0.675230  0.001630  1.0  0.1457
  H  H20  1  0.189830  0.956370  0.347270  1.0  0.0998
  H  H21  1  0.142930  0.008570  0.334970  1.0  0.1491
  H  H22  1  0.710300  0.566800  0.680600  1.0  0.1008
  H  H23  1  0.658100  0.467700  0.668300  1.0  0.147
  H  H24  1  0.376970  0.900130  0.013930  1.0  0.1007
  H  H25  1  0.324770  0.801030  0.001630  1.0  0.147
  H  H26  1  0.043630  0.233470  0.347270  1.0  0.1008
  H  H27  1  0.991430  0.134370  0.334970  1.0  0.1471
  H  H28  1  0.143500  0.433200  0.319400  1.0  0.1011
  H  H29  1  0.190400  0.532300  0.331700  1.0  0.1495
  H  H30  1  0.810170  0.766530  0.652730  1.0  0.1011
  H  H31  1  0.857070  0.865630  0.665030  1.0  0.147
  H  H32  1  0.476830  0.099870  0.986070  1.0  0.1011
  H  H33  1  0.523730  0.198970  0.998370  1.0  0.1501
  H  H34  1  0.289700  0.856500  0.319400  1.0  0.0972
  H  H35  1  0.341900  0.809600  0.331700  1.0  0.1476
  H  H36  1  0.956370  0.189830  0.652730  1.0  0.0972
  H  H37  1  0.008570  0.142930  0.665030  1.0  0.1499
  H  H38  1  0.623030  0.523170  0.986070  1.0  0.0972
  H  H39  1  0.675230  0.476270  0.998370  1.0  0.1471
  H  H40  1  0.566800  0.710300  0.319400  1.0  0.1001
  H  H41  1  0.467700  0.658100  0.331700  1.0  0.1466
  H  H42  1  0.233470  0.043630  0.652730  1.0  0.1001
  H  H43  1  0.134370  0.991430  0.665030  1.0  0.1466
  H  H44  1  0.900130  0.376970  0.986070  1.0  0.1001
  H  H45  1  0.801030  0.324770  0.998370  1.0  0.1466
  H  H46  1  0.566800  0.856500  0.319400  1.0  0.0969
  H  H47  1  0.467700  0.809600  0.331700  1.0  0.1496
  H  H48  1  0.233470  0.189830  0.652730  1.0  0.0969
  H  H49  1  0.134370  0.142930  0.665030  1.0  0.1473
  H  H50  1  0.900130  0.523170  0.986070  1.0  0.0969
  H  H51  1  0.801030  0.476270  0.998370  1.0  0.1504
  H  H52  1  0.143500  0.710300  0.319400  1.0  0.0999
  H  H53  1  0.190400  0.658100  0.331700  1.0  0.1471
  H  H54  1  0.810170  0.043630  0.652730  1.0  0.0999
  H  H55  1  0.857070  0.991430  0.665030  1.0  0.1496
  H  H56  1  0.476830  0.376970  0.986070  1.0  0.0999
  H  H57  1  0.523730  0.324770  0.998370  1.0  0.1466
  H  H58  1  0.289700  0.433200  0.319400  1.0  0.1015
  H  H59  1  0.341900  0.532300  0.331700  1.0  0.1462
  H  H60  1  0.956370  0.766530  0.652730  1.0  0.1015
  H  H61  1  0.008570  0.865630  0.665030  1.0  0.1463
  H  H62  1  0.623030  0.099870  0.986070  1.0  0.1015
  H  H63  1  0.675230  0.198970  0.998370  1.0  0.1462
  H  H64  1  0.856500  0.566800  0.680600  1.0  0.1013
  H  H65  1  0.809600  0.467700  0.668300  1.0  0.1496
  H  H66  1  0.523170  0.900130  0.013930  1.0  0.1013
  H  H67  1  0.476270  0.801030  0.001630  1.0  0.1504
  H  H68  1  0.189830  0.233470  0.347270  1.0  0.1013
  H  H69  1  0.142930  0.134370  0.334970  1.0  0.1473
  H  H70  1  0.710300  0.143500  0.680600  1.0  0.0983
  H  H71  1  0.658100  0.190400  0.668300  1.0  0.1482
  H  H72  1  0.376970  0.476830  0.013930  1.0  0.0983
  H  H73  1  0.324770  0.523730  0.001630  1.0  0.1477
  H  H74  1  0.043630  0.810170  0.347270  1.0  0.0983
  H  H75  1  0.991430  0.857070  0.334970  1.0  0.1503
  H  H76  1  0.433200  0.289700  0.680600  1.0  0.0996
  H  H77  1  0.532300  0.341900  0.668300  1.0  0.1461
  H  H78  1  0.099870  0.623030  0.013930  1.0  0.0996
  H  H79  1  0.198970  0.675230  0.001630  1.0  0.1461
  H  H80  1  0.766530  0.956370  0.347270  1.0  0.0996
  H  H81  1  0.865630  0.008570  0.334970  1.0  0.1462
  Au  Au82  1  0.292280  0.292280  0.000000  1.0  0.1696
  Au  Au83  1  0.958950  0.625610  0.333333  1.0  0.1694
  Au  Au84  1  0.625610  0.958950  0.666667  1.0  0.1696
  Au  Au85  1  0.707720  0.000000  0.000000  1.0  0.1692
  Au  Au86  1  0.374390  0.333333  0.333333  1.0  0.1692
  Au  Au87  1  0.041050  0.666667  0.666667  1.0  0.168
  Au  Au88  1  0.000000  0.707720  0.000000  1.0  0.1695
  Au  Au89  1  0.666667  0.041050  0.333333  1.0  0.1683
  Au  Au90  1  0.333333  0.374390  0.666667  1.0  0.1696
  Au  Au91  1  0.707720  0.707720  0.000000  1.0  0.1692
  Au  Au92  1  0.374390  0.041050  0.333333  1.0  0.1691
  Au  Au93  1  0.041050  0.374390  0.666667  1.0  0.1692
  Au  Au94  1  0.292280  0.000000  0.000000  1.0  0.1708
  Au  Au95  1  0.958950  0.333333  0.333333  1.0  0.1696
  Au  Au96  1  0.625610  0.666667  0.666667  1.0  0.1709
  Au  Au97  1  0.000000  0.292280  0.000000  1.0  0.1693
  Au  Au98  1  0.666667  0.625610  0.333333  1.0  0.1694
  Au  Au99  1  0.333333  0.958950  0.666667  1.0  0.1681
  C  C100  1  0.322900  0.251200  0.884200  1.0  0.0305
  C  C101  1  0.453500  0.184100  0.676000  1.0  0.1913
  C  C102  1  0.513100  0.211800  0.672000  1.0  -0.1564
  C  C103  1  0.989570  0.584530  0.217530  1.0  0.0285
  C  C104  1  0.120170  0.517430  0.009330  1.0  0.1913
  C  C105  1  0.179770  0.545130  0.005330  1.0  -0.1564
  C  C106  1  0.656230  0.917870  0.550870  1.0  0.0355
  C  C107  1  0.786830  0.850770  0.342670  1.0  0.1906
  C  C108  1  0.846430  0.878470  0.338670  1.0  -0.1494
  C  C109  1  0.748800  0.071700  0.884200  1.0  0.0348
  C  C110  1  0.815900  0.269400  0.676000  1.0  0.1936
  C  C111  1  0.788200  0.301300  0.672000  1.0  -0.1574
  C  C112  1  0.415470  0.405030  0.217530  1.0  0.0348
  C  C113  1  0.482570  0.602730  0.009330  1.0  0.1936
  C  C114  1  0.454870  0.634630  0.005330  1.0  -0.1574
  C  C115  1  0.082130  0.738370  0.550870  1.0  0.0348
  C  C116  1  0.149230  0.936070  0.342670  1.0  0.1936
  C  C117  1  0.121530  0.967970  0.338670  1.0  -0.1574
  C  C118  1  0.928300  0.677100  0.884200  1.0  0.0327
  C  C119  1  0.730600  0.546500  0.676000  1.0  0.1917
  C  C120  1  0.698700  0.486900  0.672000  1.0  -0.1493
  C  C121  1  0.594970  0.010430  0.217530  1.0  0.0362
  C  C122  1  0.397270  0.879830  0.009330  1.0  0.1917
  C  C123  1  0.365370  0.820230  0.005330  1.0  -0.1499
  C  C124  1  0.261630  0.343770  0.550870  1.0  0.0231
  C  C125  1  0.063930  0.213170  0.342670  1.0  0.1935
  C  C126  1  0.032030  0.153570  0.338670  1.0  -0.1561
  C  C127  1  0.251200  0.322900  0.115800  1.0  0.0331
  C  C128  1  0.184100  0.453500  0.324000  1.0  0.1928
  C  C129  1  0.211800  0.513100  0.328000  1.0  -0.1585
  C  C130  1  0.917870  0.656230  0.449130  1.0  0.0372
  C  C131  1  0.850770  0.786830  0.657330  1.0  0.1922
  C  C132  1  0.878470  0.846430  0.661330  1.0  -0.1506
  C  C133  1  0.584530  0.989570  0.782470  1.0  0.0302
  C  C134  1  0.517430  0.120170  0.990670  1.0  0.1929
  C  C135  1  0.545130  0.179770  0.994670  1.0  -0.1585
  C  C136  1  0.071700  0.748800  0.115800  1.0  0.036
  C  C137  1  0.269400  0.815900  0.324000  1.0  0.1912
  C  C138  1  0.301300  0.788200  0.328000  1.0  -0.1576
  C  C139  1  0.738370  0.082130  0.449130  1.0  0.036
  C  C140  1  0.936070  0.149230  0.657330  1.0  0.1912
  C  C141  1  0.967970  0.121530  0.661330  1.0  -0.1576
  C  C142  1  0.405030  0.415470  0.782470  1.0  0.036
  C  C143  1  0.602730  0.482570  0.990670  1.0  0.1912
  C  C144  1  0.634630  0.454870  0.994670  1.0  -0.1576
  C  C145  1  0.677100  0.928300  0.115800  1.0  0.032
  C  C146  1  0.546500  0.730600  0.324000  1.0  0.192
  C  C147  1  0.486900  0.698700  0.328000  1.0  -0.1499
  C  C148  1  0.343770  0.261630  0.449130  1.0  0.0233
  C  C149  1  0.213170  0.063930  0.657330  1.0  0.193
  C  C150  1  0.153570  0.032030  0.661330  1.0  -0.1573
  C  C151  1  0.010430  0.594970  0.782470  1.0  0.0355
  C  C152  1  0.879830  0.397270  0.990670  1.0  0.192
  C  C153  1  0.820230  0.365370  0.994670  1.0  -0.1508
  C  C154  1  0.677100  0.748800  0.115800  1.0  0.0318
  C  C155  1  0.546500  0.815900  0.324000  1.0  0.1924
  C  C156  1  0.486900  0.788200  0.328000  1.0  -0.1586
  C  C157  1  0.343770  0.082130  0.449130  1.0  0.0362
  C  C158  1  0.213170  0.149230  0.657330  1.0  0.1925
  C  C159  1  0.153570  0.121530  0.661330  1.0  -0.1513
  C  C160  1  0.010430  0.415470  0.782470  1.0  0.0294
  C  C161  1  0.879830  0.482570  0.990670  1.0  0.1924
  C  C162  1  0.820230  0.454870  0.994670  1.0  -0.1586
  C  C163  1  0.251200  0.928300  0.115800  1.0  0.0353
  C  C164  1  0.184100  0.730600  0.324000  1.0  0.1944
  C  C165  1  0.211800  0.698700  0.328000  1.0  -0.1574
  C  C166  1  0.917870  0.261630  0.449130  1.0  0.0353
  C  C167  1  0.850770  0.063930  0.657330  1.0  0.1944
  C  C168  1  0.878470  0.032030  0.661330  1.0  -0.1574
  C  C169  1  0.584530  0.594970  0.782470  1.0  0.0353
  C  C170  1  0.517430  0.397270  0.990670  1.0  0.1944
  C  C171  1  0.545130  0.365370  0.994670  1.0  -0.1574
  C  C172  1  0.071700  0.322900  0.115800  1.0  0.0337
  C  C173  1  0.269400  0.453500  0.324000  1.0  0.1929
  C  C174  1  0.301300  0.513100  0.328000  1.0  -0.152
  C  C175  1  0.738370  0.656230  0.449130  1.0  0.0255
  C  C176  1  0.936070  0.786830  0.657330  1.0  0.1936
  C  C177  1  0.967970  0.846430  0.661330  1.0  -0.1601
  C  C178  1  0.405030  0.989570  0.782470  1.0  0.0377
  C  C179  1  0.602730  0.120170  0.990670  1.0  0.1929
  C  C180  1  0.634630  0.179770  0.994670  1.0  -0.1532
  C  C181  1  0.748800  0.677100  0.884200  1.0  0.0314
  C  C182  1  0.815900  0.546500  0.676000  1.0  0.1937
  C  C183  1  0.788200  0.486900  0.672000  1.0  -0.1584
  C  C184  1  0.415470  0.010430  0.217530  1.0  0.029
  C  C185  1  0.482570  0.879830  0.009330  1.0  0.1937
  C  C186  1  0.454870  0.820230  0.005330  1.0  -0.1584
  C  C187  1  0.082130  0.343770  0.550870  1.0  0.0361
  C  C188  1  0.149230  0.213170  0.342670  1.0  0.1936
  C  C189  1  0.121530  0.153570  0.338670  1.0  -0.1513
  C  C190  1  0.928300  0.251200  0.884200  1.0  0.0349
  C  C191  1  0.730600  0.184100  0.676000  1.0  0.1925
  C  C192  1  0.698700  0.211800  0.672000  1.0  -0.1571
  C  C193  1  0.594970  0.584530  0.217530  1.0  0.0349
  C  C194  1  0.397270  0.517430  0.009330  1.0  0.1925
  C  C195  1  0.365370  0.545130  0.005330  1.0  -0.1571
  C  C196  1  0.261630  0.917870  0.550870  1.0  0.0349
  C  C197  1  0.063930  0.850770  0.342670  1.0  0.1925
  C  C198  1  0.032030  0.878470  0.338670  1.0  -0.1571
  C  C199  1  0.322900  0.071700  0.884200  1.0  0.0311
  C  C200  1  0.453500  0.269400  0.676000  1.0  0.1942
  C  C201  1  0.513100  0.301300  0.672000  1.0  -0.151
  C  C202  1  0.989570  0.405030  0.217530  1.0  0.0349
  C  C203  1  0.120170  0.602730  0.009330  1.0  0.1942
  C  C204  1  0.179770  0.634630  0.005330  1.0  -0.1514
  C  C205  1  0.656230  0.738370  0.550870  1.0  0.0216
  C  C206  1  0.786830  0.936070  0.342670  1.0  0.1953
  C  C207  1  0.846430  0.967970  0.338670  1.0  -0.1567
  C  C208  1  0.544400  0.272200  0.674000  1.0  -0.0119
  C  C209  1  0.608700  0.304350  0.673000  1.0  0.3602
  C  C210  1  0.211070  0.605530  0.007330  1.0  -0.0119
  C  C211  1  0.275370  0.637680  0.006330  1.0  0.3602
  C  C212  1  0.877730  0.938870  0.340670  1.0  -0.0119
  C  C213  1  0.942030  0.971020  0.339670  1.0  0.3602
  C  C214  1  0.727800  0.272200  0.674000  1.0  -0.0116
  C  C215  1  0.695650  0.304350  0.673000  1.0  0.357
  C  C216  1  0.394470  0.605530  0.007330  1.0  -0.0116
  C  C217  1  0.362320  0.637680  0.006330  1.0  0.357
  C  C218  1  0.061130  0.938870  0.340670  1.0  -0.0116
  C  C219  1  0.028980  0.971020  0.339670  1.0  0.3606
  C  C220  1  0.727800  0.455600  0.674000  1.0  -0.0081
  C  C221  1  0.695650  0.391300  0.673000  1.0  0.3608
  C  C222  1  0.394470  0.788930  0.007330  1.0  -0.0081
  C  C223  1  0.362320  0.724630  0.006330  1.0  0.3608
  C  C224  1  0.061130  0.122270  0.340670  1.0  -0.0081
  C  C225  1  0.028980  0.057970  0.339670  1.0  0.3608
  C  C226  1  0.272200  0.544400  0.326000  1.0  -0.0091
  C  C227  1  0.304350  0.608700  0.327000  1.0  0.3646
  C  C228  1  0.938870  0.877730  0.659330  1.0  -0.0091
  C  C229  1  0.971020  0.942030  0.660330  1.0  0.3646
  C  C230  1  0.605530  0.211070  0.992670  1.0  -0.0091
  C  C231  1  0.637680  0.275370  0.993670  1.0  0.3646
  C  C232  1  0.272200  0.727800  0.326000  1.0  -0.0127
  C  C233  1  0.304350  0.695650  0.327000  1.0  0.362
  C  C234  1  0.938870  0.061130  0.659330  1.0  -0.0127
  C  C235  1  0.971020  0.028980  0.660330  1.0  0.365
  C  C236  1  0.605530  0.394470  0.992670  1.0  -0.0127
  C  C237  1  0.637680  0.362320  0.993670  1.0  0.362
  C  C238  1  0.455600  0.727800  0.326000  1.0  -0.0117
  C  C239  1  0.391300  0.695650  0.327000  1.0  0.3642
  C  C240  1  0.122270  0.061130  0.659330  1.0  -0.0117
  C  C241  1  0.057970  0.028980  0.660330  1.0  0.3642
  C  C242  1  0.788930  0.394470  0.992670  1.0  -0.0117
  C  C243  1  0.724630  0.362320  0.993670  1.0  0.3642
  N  N244  1  0.331300  0.221600  0.813500  1.0  -0.3748
  N  N245  1  0.997970  0.554930  0.146830  1.0  -0.3748
  N  N246  1  0.664630  0.888270  0.480170  1.0  -0.3752
  N  N247  1  0.778400  0.109700  0.813500  1.0  -0.3754
  N  N248  1  0.445070  0.443030  0.146830  1.0  -0.3755
  N  N249  1  0.111730  0.776370  0.480170  1.0  -0.3755
  N  N250  1  0.890300  0.668700  0.813500  1.0  -0.3749
  N  N251  1  0.556970  0.002030  0.146830  1.0  -0.3745
  N  N252  1  0.223630  0.335370  0.480170  1.0  -0.3745
  N  N253  1  0.221600  0.331300  0.186500  1.0  -0.3727
  N  N254  1  0.888270  0.664630  0.519830  1.0  -0.3725
  N  N255  1  0.554930  0.997970  0.853170  1.0  -0.3727
  N  N256  1  0.109700  0.778400  0.186500  1.0  -0.3715
  N  N257  1  0.776370  0.111730  0.519830  1.0  -0.3715
  N  N258  1  0.443030  0.445070  0.853170  1.0  -0.3716
  N  N259  1  0.668700  0.890300  0.186500  1.0  -0.374
  N  N260  1  0.335370  0.223630  0.519830  1.0  -0.3738
  N  N261  1  0.002030  0.556970  0.853170  1.0  -0.3735
  N  N262  1  0.668700  0.778400  0.186500  1.0  -0.3727
  N  N263  1  0.335370  0.111730  0.519830  1.0  -0.3726
  N  N264  1  0.002030  0.445070  0.853170  1.0  -0.3727
  N  N265  1  0.221600  0.890300  0.186500  1.0  -0.374
  N  N266  1  0.888270  0.223630  0.519830  1.0  -0.374
  N  N267  1  0.554930  0.556970  0.853170  1.0  -0.3741
  N  N268  1  0.109700  0.331300  0.186500  1.0  -0.3715
  N  N269  1  0.776370  0.664630  0.519830  1.0  -0.3713
  N  N270  1  0.443030  0.997970  0.853170  1.0  -0.3709
  N  N271  1  0.778400  0.668700  0.813500  1.0  -0.3737
  N  N272  1  0.445070  0.002030  0.146830  1.0  -0.3737
  N  N273  1  0.111730  0.335370  0.480170  1.0  -0.3743
  N  N274  1  0.890300  0.221600  0.813500  1.0  -0.375
  N  N275  1  0.556970  0.554930  0.146830  1.0  -0.3751
  N  N276  1  0.223630  0.888270  0.480170  1.0  -0.3751
  N  N277  1  0.331300  0.109700  0.813500  1.0  -0.3755
  N  N278  1  0.997970  0.443030  0.146830  1.0  -0.3751
  N  N279  1  0.664630  0.776370  0.480170  1.0  -0.3753
  N  N280  1  0.422400  0.211200  0.673000  1.0  -0.2713
  N  N281  1  0.089070  0.544530  0.006330  1.0  -0.2746
  N  N282  1  0.755730  0.877870  0.339670  1.0  -0.2713
  N  N283  1  0.788800  0.211200  0.673000  1.0  -0.2719
  N  N284  1  0.455470  0.544530  0.006330  1.0  -0.2719
  N  N285  1  0.122130  0.877870  0.339670  1.0  -0.2722
  N  N286  1  0.788800  0.577600  0.673000  1.0  -0.273
  N  N287  1  0.455470  0.910930  0.006330  1.0  -0.2764
  N  N288  1  0.122130  0.244270  0.339670  1.0  -0.273
  N  N289  1  0.211200  0.422400  0.327000  1.0  -0.2723
  N  N290  1  0.877870  0.755730  0.660330  1.0  -0.2723
  N  N291  1  0.544530  0.089070  0.993670  1.0  -0.2758
  N  N292  1  0.211200  0.788800  0.327000  1.0  -0.2759
  N  N293  1  0.877870  0.122130  0.660330  1.0  -0.2761
  N  N294  1  0.544530  0.455470  0.993670  1.0  -0.2758
  N  N295  1  0.577600  0.788800  0.327000  1.0  -0.2676
  N  N296  1  0.244270  0.122130  0.660330  1.0  -0.2676
  N  N297  1  0.910930  0.455470  0.993670  1.0  -0.2711
  N  N298  1  0.636400  0.363600  0.670000  1.0  -0.5076
  N  N299  1  0.303070  0.696930  0.003330  1.0  -0.5076
  N  N300  1  0.969730  0.030270  0.336670  1.0  -0.5117
  N  N301  1  0.636400  0.272800  0.670000  1.0  -0.5121
  N  N302  1  0.303070  0.606130  0.003330  1.0  -0.5121
  N  N303  1  0.969730  0.939470  0.336670  1.0  -0.5122
  N  N304  1  0.727200  0.363600  0.670000  1.0  -0.5117
  N  N305  1  0.393870  0.696930  0.003330  1.0  -0.5117
  N  N306  1  0.060530  0.030270  0.336670  1.0  -0.5118
  N  N307  1  0.363600  0.636400  0.330000  1.0  -0.5102
  N  N308  1  0.030270  0.969730  0.663330  1.0  -0.5123
  N  N309  1  0.696930  0.303070  0.996670  1.0  -0.5102
  N  N310  1  0.272800  0.636400  0.330000  1.0  -0.5154
  N  N311  1  0.939470  0.969730  0.663330  1.0  -0.5154
  N  N312  1  0.606130  0.303070  0.996670  1.0  -0.5154
  N  N313  1  0.363600  0.727200  0.330000  1.0  -0.5144
  N  N314  1  0.030270  0.060530  0.663330  1.0  -0.5144
  N  N315  1  0.696930  0.393870  0.996670  1.0  -0.5144
