# generated using pymatgen
data_FeH8Au2(C2N)8
_symmetry_space_group_name_H-M   'P 1'
_cell_length_a   26.80780000
_cell_length_b   26.80780000
_cell_length_c   9.94060000
_cell_angle_alpha   90.00000000
_cell_angle_beta   90.00000000
_cell_angle_gamma   120.00000000
_symmetry_Int_Tables_number   1
_chemical_formula_structural   FeH8Au2(C2N)8
_chemical_formula_sum   'Fe9 H72 Au18 C144 N72'
_cell_volume   6186.79291937
_cell_formula_units_Z   9
loop_
 _symmetry_equiv_pos_site_id
 _symmetry_equiv_pos_as_xyz
  1  'x, y, z'
loop_
 _atom_site_type_symbol
 _atom_site_label
 _atom_site_symmetry_multiplicity
 _atom_site_fract_x
 _atom_site_fract_y
 _atom_site_fract_z
 _atom_site_occupancy
 _atom_site_charge
  Fe  Fe1  1  0.833330  0.166670  0.666667  1.0  0.4755
  Fe  Fe2  1  0.500000  0.500000  0.000000  1.0  0.4508
  Fe  Fe3  1  0.833330  0.666667  0.666667  1.0  0.4744
  Fe  Fe4  1  0.500000  0.000000  0.000000  1.0  0.4514
  Fe  Fe5  1  0.333333  0.166670  0.666667  1.0  0.4745
  Fe  Fe6  1  0.000000  0.500000  0.000000  1.0  0.4514
  Fe  Fe7  1  0.166670  0.833330  0.333333  1.0  0.4755
  Fe  Fe8  1  0.666667  0.833330  0.333333  1.0  0.4741
  Fe  Fe9  1  0.166670  0.333333  0.333333  1.0  0.4742
  H  H10  1  0.708900  0.146600  0.676100  1.0  0.1034
  H  H11  1  0.657800  0.192900  0.680300  1.0  0.1527
  H  H12  1  0.375570  0.479930  0.009430  1.0  0.1034
  H  H13  1  0.324470  0.526230  0.013630  1.0  0.1524
  H  H14  1  0.042230  0.813270  0.342770  1.0  0.1034
  H  H15  1  0.991130  0.859570  0.346970  1.0  0.1546
  H  H16  1  0.853400  0.562300  0.676100  1.0  0.1042
  H  H17  1  0.807100  0.464900  0.680300  1.0  0.1524
  H  H18  1  0.520070  0.895630  0.009430  1.0  0.1042
  H  H19  1  0.473770  0.798230  0.013630  1.0  0.154
  H  H20  1  0.186730  0.228970  0.342770  1.0  0.1042
  H  H21  1  0.140430  0.131570  0.346970  1.0  0.1518
  H  H22  1  0.437700  0.291100  0.676100  1.0  0.1042
  H  H23  1  0.535100  0.342200  0.680300  1.0  0.1509
  H  H24  1  0.104370  0.624430  0.009430  1.0  0.1042
  H  H25  1  0.201770  0.675530  0.013630  1.0  0.1509
  H  H26  1  0.771030  0.957770  0.342770  1.0  0.1042
  H  H27  1  0.868430  0.008870  0.346970  1.0  0.1509
  H  H28  1  0.146600  0.708900  0.323900  1.0  0.105
  H  H29  1  0.192900  0.657800  0.319700  1.0  0.1513
  H  H30  1  0.813270  0.042230  0.657230  1.0  0.105
  H  H31  1  0.859570  0.991130  0.653030  1.0  0.1542
  H  H32  1  0.479930  0.375570  0.990570  1.0  0.105
  H  H33  1  0.526230  0.324470  0.986370  1.0  0.1507
  H  H34  1  0.562300  0.853400  0.323900  1.0  0.1049
  H  H35  1  0.464900  0.807100  0.319700  1.0  0.1532
  H  H36  1  0.228970  0.186730  0.657230  1.0  0.1049
  H  H37  1  0.131570  0.140430  0.653030  1.0  0.1525
  H  H38  1  0.895630  0.520070  0.990570  1.0  0.1049
  H  H39  1  0.798230  0.473770  0.986370  1.0  0.1546
  H  H40  1  0.291100  0.437700  0.323900  1.0  0.1047
  H  H41  1  0.342200  0.535100  0.319700  1.0  0.1514
  H  H42  1  0.957770  0.771030  0.657230  1.0  0.1047
  H  H43  1  0.008870  0.868430  0.653030  1.0  0.1514
  H  H44  1  0.624430  0.104370  0.990570  1.0  0.1047
  H  H45  1  0.675530  0.201770  0.986370  1.0  0.1514
  H  H46  1  0.291100  0.853400  0.323900  1.0  0.1045
  H  H47  1  0.342200  0.807100  0.319700  1.0  0.1527
  H  H48  1  0.957770  0.186730  0.657230  1.0  0.1045
  H  H49  1  0.008870  0.140430  0.653030  1.0  0.1549
  H  H50  1  0.624430  0.520070  0.990570  1.0  0.1045
  H  H51  1  0.675530  0.473770  0.986370  1.0  0.1524
  H  H52  1  0.146600  0.437700  0.323900  1.0  0.1053
  H  H53  1  0.192900  0.535100  0.319700  1.0  0.1527
  H  H54  1  0.813270  0.771030  0.657230  1.0  0.1053
  H  H55  1  0.859570  0.868430  0.653030  1.0  0.1518
  H  H56  1  0.479930  0.104370  0.990570  1.0  0.1053
  H  H57  1  0.526230  0.201770  0.986370  1.0  0.1544
  H  H58  1  0.562300  0.708900  0.323900  1.0  0.1044
  H  H59  1  0.464900  0.657800  0.319700  1.0  0.1513
  H  H60  1  0.228970  0.042230  0.657230  1.0  0.1044
  H  H61  1  0.131570  0.991130  0.653030  1.0  0.1514
  H  H62  1  0.895630  0.375570  0.990570  1.0  0.1044
  H  H63  1  0.798230  0.324470  0.986370  1.0  0.1513
  H  H64  1  0.853400  0.291100  0.676100  1.0  0.104
  H  H65  1  0.807100  0.342200  0.680300  1.0  0.1512
  H  H66  1  0.520070  0.624430  0.009430  1.0  0.104
  H  H67  1  0.473770  0.675530  0.013630  1.0  0.1508
  H  H68  1  0.186730  0.957770  0.342770  1.0  0.104
  H  H69  1  0.140430  0.008870  0.346970  1.0  0.1536
  H  H70  1  0.437700  0.146600  0.676100  1.0  0.1036
  H  H71  1  0.535100  0.192900  0.680300  1.0  0.1524
  H  H72  1  0.104370  0.479930  0.009430  1.0  0.1036
  H  H73  1  0.201770  0.526230  0.013630  1.0  0.1539
  H  H74  1  0.771030  0.813270  0.342770  1.0  0.1036
  H  H75  1  0.868430  0.859570  0.346970  1.0  0.1522
  H  H76  1  0.708900  0.562300  0.676100  1.0  0.1049
  H  H77  1  0.657800  0.464900  0.680300  1.0  0.1515
  H  H78  1  0.375570  0.895630  0.009430  1.0  0.1049
  H  H79  1  0.324470  0.798230  0.013630  1.0  0.1515
  H  H80  1  0.042230  0.228970  0.342770  1.0  0.1049
  H  H81  1  0.991130  0.131570  0.346970  1.0  0.1515
  Au  Au82  1  0.000000  0.291730  0.000000  1.0  0.1758
  Au  Au83  1  0.666667  0.625060  0.333333  1.0  0.1757
  Au  Au84  1  0.333333  0.958400  0.666667  1.0  0.1756
  Au  Au85  1  0.708270  0.708270  0.000000  1.0  0.1744
  Au  Au86  1  0.374940  0.041600  0.333333  1.0  0.1743
  Au  Au87  1  0.041600  0.374940  0.666667  1.0  0.1744
  Au  Au88  1  0.291730  0.000000  0.000000  1.0  0.1752
  Au  Au89  1  0.958400  0.333333  0.333333  1.0  0.1752
  Au  Au90  1  0.625060  0.666667  0.666667  1.0  0.1753
  Au  Au91  1  0.000000  0.708270  0.000000  1.0  0.1755
  Au  Au92  1  0.666667  0.041600  0.333333  1.0  0.1755
  Au  Au93  1  0.333333  0.374940  0.666667  1.0  0.1756
  Au  Au94  1  0.291730  0.291730  0.000000  1.0  0.1753
  Au  Au95  1  0.958400  0.625060  0.333333  1.0  0.1751
  Au  Au96  1  0.625060  0.958400  0.666667  1.0  0.1753
  Au  Au97  1  0.708270  0.000000  0.000000  1.0  0.1753
  Au  Au98  1  0.374940  0.333333  0.333333  1.0  0.1753
  Au  Au99  1  0.041600  0.666667  0.666667  1.0  0.1753
  C  C100  1  0.729000  0.186700  0.675400  1.0  0.2019
  C  C101  1  0.697800  0.213900  0.676900  1.0  -0.1442
  C  C102  1  0.929700  0.252300  0.884100  1.0  0.0338
  C  C103  1  0.395670  0.520030  0.008730  1.0  0.2019
  C  C104  1  0.364470  0.547230  0.010230  1.0  -0.1442
  C  C105  1  0.596370  0.585630  0.217430  1.0  0.0341
  C  C106  1  0.062330  0.853370  0.342070  1.0  0.2022
  C  C107  1  0.031130  0.880570  0.343570  1.0  -0.1442
  C  C108  1  0.263030  0.918970  0.550770  1.0  0.0338
  C  C109  1  0.813300  0.542300  0.675400  1.0  0.204
  C  C110  1  0.786100  0.483900  0.676900  1.0  -0.1473
  C  C111  1  0.747700  0.677400  0.884100  1.0  0.032
  C  C112  1  0.479970  0.875630  0.008730  1.0  0.204
  C  C113  1  0.452770  0.817230  0.010230  1.0  -0.1473
  C  C114  1  0.414370  0.010730  0.217430  1.0  0.029
  C  C115  1  0.146630  0.208970  0.342070  1.0  0.2039
  C  C116  1  0.119430  0.150570  0.343570  1.0  -0.1456
  C  C117  1  0.081030  0.344070  0.550770  1.0  0.0352
  C  C118  1  0.457700  0.271000  0.675400  1.0  0.2026
  C  C119  1  0.516100  0.302200  0.676900  1.0  -0.1452
  C  C120  1  0.322600  0.070300  0.884100  1.0  0.0334
  C  C121  1  0.124370  0.604330  0.008730  1.0  0.2026
  C  C122  1  0.182770  0.635530  0.010230  1.0  -0.1452
  C  C123  1  0.989270  0.403630  0.217430  1.0  0.0342
  C  C124  1  0.791030  0.937670  0.342070  1.0  0.2029
  C  C125  1  0.849430  0.968870  0.343570  1.0  -0.1462
  C  C126  1  0.655930  0.736970  0.550770  1.0  0.0273
  C  C127  1  0.186700  0.729000  0.324600  1.0  0.2034
  C  C128  1  0.213900  0.697800  0.323100  1.0  -0.1465
  C  C129  1  0.252300  0.929700  0.115900  1.0  0.0332
  C  C130  1  0.853370  0.062330  0.657930  1.0  0.2036
  C  C131  1  0.880570  0.031130  0.656430  1.0  -0.1465
  C  C132  1  0.918970  0.263030  0.449230  1.0  0.0332
  C  C133  1  0.520030  0.395670  0.991270  1.0  0.2034
  C  C134  1  0.547230  0.364470  0.989770  1.0  -0.1465
  C  C135  1  0.585630  0.596370  0.782570  1.0  0.0335
  C  C136  1  0.542300  0.813300  0.324600  1.0  0.2027
  C  C137  1  0.483900  0.786100  0.323100  1.0  -0.1476
  C  C138  1  0.677400  0.747700  0.115900  1.0  0.0292
  C  C139  1  0.208970  0.146630  0.657930  1.0  0.2042
  C  C140  1  0.150570  0.119430  0.656430  1.0  -0.1447
  C  C141  1  0.344070  0.081030  0.449230  1.0  0.0338
  C  C142  1  0.875630  0.479970  0.991270  1.0  0.2027
  C  C143  1  0.817230  0.452770  0.989770  1.0  -0.1476
  C  C144  1  0.010730  0.414370  0.782570  1.0  0.0283
  C  C145  1  0.271000  0.457700  0.324600  1.0  0.2044
  C  C146  1  0.302200  0.516100  0.323100  1.0  -0.1447
  C  C147  1  0.070300  0.322600  0.115900  1.0  0.0355
  C  C148  1  0.937670  0.791030  0.657930  1.0  0.2042
  C  C149  1  0.968870  0.849430  0.656430  1.0  -0.1476
  C  C150  1  0.736970  0.655930  0.449230  1.0  0.0302
  C  C151  1  0.604330  0.124370  0.991270  1.0  0.2044
  C  C152  1  0.635530  0.182770  0.989770  1.0  -0.1447
  C  C153  1  0.403630  0.989270  0.782570  1.0  0.035
  C  C154  1  0.271000  0.813300  0.324600  1.0  0.2027
  C  C155  1  0.302200  0.786100  0.323100  1.0  -0.1469
  C  C156  1  0.070300  0.747700  0.115900  1.0  0.0341
  C  C157  1  0.937670  0.146630  0.657930  1.0  0.2029
  C  C158  1  0.968870  0.119430  0.656430  1.0  -0.1469
  C  C159  1  0.736970  0.081030  0.449230  1.0  0.0341
  C  C160  1  0.604330  0.479970  0.991270  1.0  0.2027
  C  C161  1  0.635530  0.452770  0.989770  1.0  -0.1469
  C  C162  1  0.403630  0.414370  0.782570  1.0  0.0345
  C  C163  1  0.186700  0.457700  0.324600  1.0  0.2035
  C  C164  1  0.213900  0.516100  0.323100  1.0  -0.1478
  C  C165  1  0.252300  0.322600  0.115900  1.0  0.0302
  C  C166  1  0.853370  0.791030  0.657930  1.0  0.2037
  C  C167  1  0.880570  0.849430  0.656430  1.0  -0.1453
  C  C168  1  0.918970  0.655930  0.449230  1.0  0.0348
  C  C169  1  0.520030  0.124370  0.991270  1.0  0.2035
  C  C170  1  0.547230  0.182770  0.989770  1.0  -0.1478
  C  C171  1  0.585630  0.989270  0.782570  1.0  0.0292
  C  C172  1  0.542300  0.729000  0.324600  1.0  0.204
  C  C173  1  0.483900  0.697800  0.323100  1.0  -0.1441
  C  C174  1  0.677400  0.929700  0.115900  1.0  0.0329
  C  C175  1  0.208970  0.062330  0.657930  1.0  0.2038
  C  C176  1  0.150570  0.031130  0.656430  1.0  -0.1464
  C  C177  1  0.344070  0.263030  0.449230  1.0  0.0269
  C  C178  1  0.875630  0.395670  0.991270  1.0  0.204
  C  C179  1  0.817230  0.364470  0.989770  1.0  -0.1441
  C  C180  1  0.010730  0.596370  0.782570  1.0  0.033
  C  C181  1  0.813300  0.271000  0.675400  1.0  0.2036
  C  C182  1  0.786100  0.302200  0.676900  1.0  -0.1464
  C  C183  1  0.747700  0.070300  0.884100  1.0  0.0333
  C  C184  1  0.479970  0.604330  0.008730  1.0  0.2037
  C  C185  1  0.452770  0.635530  0.010230  1.0  -0.1464
  C  C186  1  0.414370  0.403630  0.217430  1.0  0.0337
  C  C187  1  0.146630  0.937670  0.342070  1.0  0.2039
  C  C188  1  0.119430  0.968870  0.343570  1.0  -0.1464
  C  C189  1  0.081030  0.736970  0.550770  1.0  0.0333
  C  C190  1  0.457700  0.186700  0.675400  1.0  0.2019
  C  C191  1  0.516100  0.213900  0.676900  1.0  -0.1449
  C  C192  1  0.322600  0.252300  0.884100  1.0  0.0307
  C  C193  1  0.124370  0.520030  0.008730  1.0  0.2019
  C  C194  1  0.182770  0.547230  0.010230  1.0  -0.1449
  C  C195  1  0.989270  0.585630  0.217430  1.0  0.0277
  C  C196  1  0.791030  0.853370  0.342070  1.0  0.2022
  C  C197  1  0.849430  0.880570  0.343570  1.0  -0.1435
  C  C198  1  0.655930  0.918970  0.550770  1.0  0.0341
  C  C199  1  0.729000  0.542300  0.675400  1.0  0.2025
  C  C200  1  0.697800  0.483900  0.676900  1.0  -0.1446
  C  C201  1  0.929700  0.677400  0.884100  1.0  0.0348
  C  C202  1  0.395670  0.875630  0.008730  1.0  0.2025
  C  C203  1  0.364470  0.817230  0.010230  1.0  -0.1446
  C  C204  1  0.596370  0.010730  0.217430  1.0  0.0355
  C  C205  1  0.062330  0.208970  0.342070  1.0  0.2032
  C  C206  1  0.031130  0.150570  0.343570  1.0  -0.1461
  C  C207  1  0.263030  0.344070  0.550770  1.0  0.0284
  C  C208  1  0.726700  0.273300  0.673400  1.0  -0.0469
  C  C209  1  0.695000  0.305000  0.674000  1.0  0.3764
  C  C210  1  0.393370  0.606630  0.006730  1.0  -0.0469
  C  C211  1  0.361670  0.638330  0.007330  1.0  0.3764
  C  C212  1  0.060030  0.939970  0.340070  1.0  -0.0463
  C  C213  1  0.028330  0.971670  0.340670  1.0  0.3697
  C  C214  1  0.726700  0.453400  0.673400  1.0  -0.0385
  C  C215  1  0.695000  0.390000  0.674000  1.0  0.3756
  C  C216  1  0.393370  0.786730  0.006730  1.0  -0.0385
  C  C217  1  0.361670  0.723330  0.007330  1.0  0.3756
  C  C218  1  0.060030  0.120070  0.340070  1.0  -0.0385
  C  C219  1  0.028330  0.056670  0.340670  1.0  0.3755
  C  C220  1  0.546600  0.273300  0.673400  1.0  -0.0372
  C  C221  1  0.610000  0.305000  0.674000  1.0  0.3755
  C  C222  1  0.213270  0.606630  0.006730  1.0  -0.0372
  C  C223  1  0.276670  0.638330  0.007330  1.0  0.3755
  C  C224  1  0.879930  0.939970  0.340070  1.0  -0.0372
  C  C225  1  0.943330  0.971670  0.340670  1.0  0.3754
  C  C226  1  0.273300  0.726700  0.326600  1.0  -0.0469
  C  C227  1  0.305000  0.695000  0.326000  1.0  0.3811
  C  C228  1  0.939970  0.060030  0.659930  1.0  -0.0463
  C  C229  1  0.971670  0.028330  0.659330  1.0  0.3758
  C  C230  1  0.606630  0.393370  0.993270  1.0  -0.0469
  C  C231  1  0.638330  0.361670  0.992670  1.0  0.3811
  C  C232  1  0.453400  0.726700  0.326600  1.0  -0.0417
  C  C233  1  0.390000  0.695000  0.326000  1.0  0.3789
  C  C234  1  0.120070  0.060030  0.659930  1.0  -0.0417
  C  C235  1  0.056670  0.028330  0.659330  1.0  0.3789
  C  C236  1  0.786730  0.393370  0.993270  1.0  -0.0417
  C  C237  1  0.723330  0.361670  0.992670  1.0  0.3789
  C  C238  1  0.273300  0.546600  0.326600  1.0  -0.0387
  C  C239  1  0.305000  0.610000  0.326000  1.0  0.3796
  C  C240  1  0.939970  0.879930  0.659930  1.0  -0.0387
  C  C241  1  0.971670  0.943330  0.659330  1.0  0.3795
  C  C242  1  0.606630  0.213270  0.993270  1.0  -0.0387
  C  C243  1  0.638330  0.276670  0.992670  1.0  0.3796
  N  N244  1  0.892100  0.225100  0.818700  1.0  -0.3281
  N  N245  1  0.558770  0.558430  0.152030  1.0  -0.3281
  N  N246  1  0.225430  0.891770  0.485370  1.0  -0.3282
  N  N247  1  0.774900  0.667000  0.818700  1.0  -0.3194
  N  N248  1  0.441570  0.000330  0.152030  1.0  -0.3142
  N  N249  1  0.108230  0.333670  0.485370  1.0  -0.327
  N  N250  1  0.333000  0.107900  0.818700  1.0  -0.3169
  N  N251  1  0.999670  0.441230  0.152030  1.0  -0.3298
  N  N252  1  0.666330  0.774570  0.485370  1.0  -0.3098
  N  N253  1  0.225100  0.892100  0.181300  1.0  -0.3302
  N  N254  1  0.891770  0.225430  0.514630  1.0  -0.3302
  N  N255  1  0.558430  0.558770  0.847970  1.0  -0.3302
  N  N256  1  0.667000  0.774900  0.181300  1.0  -0.3203
  N  N257  1  0.333670  0.108230  0.514630  1.0  -0.3288
  N  N258  1  0.000330  0.441570  0.847970  1.0  -0.3132
  N  N259  1  0.107900  0.333000  0.181300  1.0  -0.3128
  N  N260  1  0.774570  0.666330  0.514630  1.0  -0.3076
  N  N261  1  0.441230  0.999670  0.847970  1.0  -0.3277
  N  N262  1  0.107900  0.774900  0.181300  1.0  -0.3268
  N  N263  1  0.774570  0.108230  0.514630  1.0  -0.3268
  N  N264  1  0.441230  0.441570  0.847970  1.0  -0.3268
  N  N265  1  0.225100  0.333000  0.181300  1.0  -0.3203
  N  N266  1  0.891770  0.666330  0.514630  1.0  -0.3284
  N  N267  1  0.558430  0.999670  0.847970  1.0  -0.3139
  N  N268  1  0.667000  0.892100  0.181300  1.0  -0.3159
  N  N269  1  0.333670  0.225430  0.514630  1.0  -0.3109
  N  N270  1  0.000330  0.558770  0.847970  1.0  -0.3303
  N  N271  1  0.774900  0.107900  0.818700  1.0  -0.3304
  N  N272  1  0.441570  0.441230  0.152030  1.0  -0.3305
  N  N273  1  0.108230  0.774570  0.485370  1.0  -0.3304
  N  N274  1  0.333000  0.225100  0.818700  1.0  -0.319
  N  N275  1  0.999670  0.558430  0.152030  1.0  -0.3136
  N  N276  1  0.666330  0.891770  0.485370  1.0  -0.3268
  N  N277  1  0.892100  0.667000  0.818700  1.0  -0.3145
  N  N278  1  0.558770  0.000330  0.152030  1.0  -0.3276
  N  N279  1  0.225430  0.333670  0.485370  1.0  -0.3077
  N  N280  1  0.636350  0.272700  0.670000  1.0  -0.5025
  N  N281  1  0.303020  0.606030  0.003330  1.0  -0.5025
  N  N282  1  0.969680  0.939370  0.336670  1.0  -0.5025
  N  N283  1  0.727300  0.363650  0.670000  1.0  -0.5034
  N  N284  1  0.393970  0.696980  0.003330  1.0  -0.5034
  N  N285  1  0.060630  0.030320  0.336670  1.0  -0.5034
  N  N286  1  0.636350  0.363650  0.670000  1.0  -0.4945
  N  N287  1  0.303020  0.696980  0.003330  1.0  -0.4945
  N  N288  1  0.969680  0.030320  0.336670  1.0  -0.5019
  N  N289  1  0.272700  0.636350  0.330000  1.0  -0.5066
  N  N290  1  0.939370  0.969680  0.663330  1.0  -0.5066
  N  N291  1  0.606030  0.303020  0.996670  1.0  -0.5066
  N  N292  1  0.363650  0.727300  0.330000  1.0  -0.5048
  N  N293  1  0.030320  0.060630  0.663330  1.0  -0.5048
  N  N294  1  0.696980  0.393970  0.996670  1.0  -0.5048
  N  N295  1  0.363650  0.636350  0.330000  1.0  -0.4957
  N  N296  1  0.030320  0.969680  0.663330  1.0  -0.5032
  N  N297  1  0.696980  0.303020  0.996670  1.0  -0.4957
  N  N298  1  0.786600  0.213400  0.672900  1.0  -0.2844
  N  N299  1  0.453270  0.546730  0.006230  1.0  -0.2843
  N  N300  1  0.119930  0.880070  0.339570  1.0  -0.286
  N  N301  1  0.786600  0.573200  0.672900  1.0  -0.2994
  N  N302  1  0.453270  0.906530  0.006230  1.0  -0.291
  N  N303  1  0.119930  0.239870  0.339570  1.0  -0.2974
  N  N304  1  0.426800  0.213400  0.672900  1.0  -0.2949
  N  N305  1  0.093470  0.546730  0.006230  1.0  -0.2864
  N  N306  1  0.760130  0.880070  0.339570  1.0  -0.293
  N  N307  1  0.213400  0.786600  0.327100  1.0  -0.2856
  N  N308  1  0.880070  0.119930  0.660430  1.0  -0.2872
  N  N309  1  0.546730  0.453270  0.993770  1.0  -0.2856
  N  N310  1  0.573200  0.786600  0.327100  1.0  -0.2914
  N  N311  1  0.239870  0.119930  0.660430  1.0  -0.2895
  N  N312  1  0.906530  0.453270  0.993770  1.0  -0.2832
  N  N313  1  0.213400  0.426800  0.327100  1.0  -0.3
  N  N314  1  0.880070  0.760130  0.660430  1.0  -0.2982
  N  N315  1  0.546730  0.093470  0.993770  1.0  -0.2921
