# generated using pymatgen
data_FeH8Au2(C2N)8
_symmetry_space_group_name_H-M   'P 1'
_cell_length_a   26.19340000
_cell_length_b   26.19340000
_cell_length_c   9.39780000
_cell_angle_alpha   90.00000000
_cell_angle_beta   90.00000000
_cell_angle_gamma   120.00000000
_symmetry_Int_Tables_number   1
_chemical_formula_structural   FeH8Au2(C2N)8
_chemical_formula_sum   'Fe9 H72 Au18 C144 N72'
_cell_volume   5583.93790590
_cell_formula_units_Z   9
loop_
 _symmetry_equiv_pos_site_id
 _symmetry_equiv_pos_as_xyz
  1  'x, y, z'
loop_
 _atom_site_type_symbol
 _atom_site_label
 _atom_site_symmetry_multiplicity
 _atom_site_fract_x
 _atom_site_fract_y
 _atom_site_fract_z
 _atom_site_occupancy
 _atom_site_charge
  Fe  Fe1  1  0.166670  0.333333  0.333333  1.0  0.504
  Fe  Fe2  1  0.666667  0.833330  0.333333  1.0  0.5039
  Fe  Fe3  1  0.166670  0.833330  0.333333  1.0  0.4851
  Fe  Fe4  1  0.333333  0.166670  0.666667  1.0  0.5029
  Fe  Fe5  1  0.000000  0.500000  0.000000  1.0  0.5053
  Fe  Fe6  1  0.833330  0.666667  0.666667  1.0  0.5029
  Fe  Fe7  1  0.500000  0.000000  0.000000  1.0  0.5053
  Fe  Fe8  1  0.833330  0.166670  0.666667  1.0  0.483
  Fe  Fe9  1  0.500000  0.500000  0.000000  1.0  0.486
  H  H10  1  0.192600  0.236100  0.342900  1.0  0.1088
  H  H11  1  0.144200  0.134700  0.338400  1.0  0.1381
  H  H12  1  0.859270  0.569430  0.676230  1.0  0.1087
  H  H13  1  0.810870  0.468030  0.671730  1.0  0.1394
  H  H14  1  0.525930  0.902770  0.009570  1.0  0.1088
  H  H15  1  0.477530  0.801370  0.005070  1.0  0.1381
  H  H16  1  0.763900  0.956500  0.342900  1.0  0.1071
  H  H17  1  0.865300  0.009500  0.338400  1.0  0.1358
  H  H18  1  0.430570  0.289830  0.676230  1.0  0.1071
  H  H19  1  0.531970  0.342830  0.671730  1.0  0.1358
  H  H20  1  0.097230  0.623170  0.009570  1.0  0.1071
  H  H21  1  0.198630  0.676170  0.005070  1.0  0.1358
  H  H22  1  0.043500  0.807400  0.342900  1.0  0.1073
  H  H23  1  0.990500  0.855800  0.338400  1.0  0.1393
  H  H24  1  0.710170  0.140730  0.676230  1.0  0.1073
  H  H25  1  0.657170  0.189130  0.671730  1.0  0.1378
  H  H26  1  0.376830  0.474070  0.009570  1.0  0.1073
  H  H27  1  0.323830  0.522470  0.005070  1.0  0.1393
  H  H28  1  0.236100  0.192600  0.657100  1.0  0.1071
  H  H29  1  0.134700  0.144200  0.661600  1.0  0.1383
  H  H30  1  0.902770  0.525930  0.990430  1.0  0.1071
  H  H31  1  0.801370  0.477530  0.994930  1.0  0.1383
  H  H32  1  0.569430  0.859270  0.323770  1.0  0.1071
  H  H33  1  0.468030  0.810870  0.328270  1.0  0.1396
  H  H34  1  0.956500  0.763900  0.657100  1.0  0.1094
  H  H35  1  0.009500  0.865300  0.661600  1.0  0.1381
  H  H36  1  0.623170  0.097230  0.990430  1.0  0.1094
  H  H37  1  0.676170  0.198630  0.994930  1.0  0.1381
  H  H38  1  0.289830  0.430570  0.323770  1.0  0.1094
  H  H39  1  0.342830  0.531970  0.328270  1.0  0.1381
  H  H40  1  0.807400  0.043500  0.657100  1.0  0.1077
  H  H41  1  0.855800  0.990500  0.661600  1.0  0.1383
  H  H42  1  0.474070  0.376830  0.990430  1.0  0.1077
  H  H43  1  0.522470  0.323830  0.994930  1.0  0.1383
  H  H44  1  0.140730  0.710170  0.323770  1.0  0.1077
  H  H45  1  0.189130  0.657170  0.328270  1.0  0.1369
  H  H46  1  0.807400  0.763900  0.657100  1.0  0.1092
  H  H47  1  0.855800  0.865300  0.661600  1.0  0.1389
  H  H48  1  0.474070  0.097230  0.990430  1.0  0.1092
  H  H49  1  0.522470  0.198630  0.994930  1.0  0.1389
  H  H50  1  0.140730  0.430570  0.323770  1.0  0.1092
  H  H51  1  0.189130  0.531970  0.328270  1.0  0.1401
  H  H52  1  0.236100  0.043500  0.657100  1.0  0.1078
  H  H53  1  0.134700  0.990500  0.661600  1.0  0.1373
  H  H54  1  0.902770  0.376830  0.990430  1.0  0.1078
  H  H55  1  0.801370  0.323830  0.994930  1.0  0.1373
  H  H56  1  0.569430  0.710170  0.323770  1.0  0.1078
  H  H57  1  0.468030  0.657170  0.328270  1.0  0.1373
  H  H58  1  0.956500  0.192600  0.657100  1.0  0.1072
  H  H59  1  0.009500  0.144200  0.661600  1.0  0.14
  H  H60  1  0.623170  0.525930  0.990430  1.0  0.1072
  H  H61  1  0.676170  0.477530  0.994930  1.0  0.14
  H  H62  1  0.289830  0.859270  0.323770  1.0  0.1073
  H  H63  1  0.342830  0.810870  0.328270  1.0  0.1383
  H  H64  1  0.763900  0.807400  0.342900  1.0  0.1075
  H  H65  1  0.865300  0.855800  0.338400  1.0  0.1378
  H  H66  1  0.430570  0.140730  0.676230  1.0  0.1075
  H  H67  1  0.531970  0.189130  0.671730  1.0  0.1391
  H  H68  1  0.097230  0.474070  0.009570  1.0  0.1075
  H  H69  1  0.198630  0.522470  0.005070  1.0  0.1378
  H  H70  1  0.043500  0.236100  0.342900  1.0  0.1087
  H  H71  1  0.990500  0.134700  0.338400  1.0  0.1378
  H  H72  1  0.710170  0.569430  0.676230  1.0  0.1087
  H  H73  1  0.657170  0.468030  0.671730  1.0  0.1378
  H  H74  1  0.376830  0.902770  0.009570  1.0  0.1087
  H  H75  1  0.323830  0.801370  0.005070  1.0  0.1378
  H  H76  1  0.192600  0.956500  0.342900  1.0  0.1073
  H  H77  1  0.144200  0.009500  0.338400  1.0  0.1375
  H  H78  1  0.859270  0.289830  0.676230  1.0  0.1073
  H  H79  1  0.810870  0.342830  0.671730  1.0  0.1355
  H  H80  1  0.525930  0.623170  0.009570  1.0  0.1073
  H  H81  1  0.477530  0.676170  0.005070  1.0  0.1375
  Au  Au82  1  0.000000  0.293770  0.000000  1.0  0.1525
  Au  Au83  1  0.666667  0.627100  0.333333  1.0  0.1522
  Au  Au84  1  0.333333  0.960440  0.666667  1.0  0.1526
  Au  Au85  1  0.706230  0.706230  0.000000  1.0  0.1521
  Au  Au86  1  0.372900  0.039560  0.333333  1.0  0.152
  Au  Au87  1  0.039560  0.372900  0.666667  1.0  0.1521
  Au  Au88  1  0.293770  0.000000  0.000000  1.0  0.1526
  Au  Au89  1  0.960440  0.333333  0.333333  1.0  0.1527
  Au  Au90  1  0.627100  0.666667  0.666667  1.0  0.1522
  Au  Au91  1  0.000000  0.706230  0.000000  1.0  0.1528
  Au  Au92  1  0.666667  0.039560  0.333333  1.0  0.1529
  Au  Au93  1  0.333333  0.372900  0.666667  1.0  0.1525
  Au  Au94  1  0.293770  0.293770  0.000000  1.0  0.1528
  Au  Au95  1  0.960440  0.627100  0.333333  1.0  0.1528
  Au  Au96  1  0.627100  0.960440  0.666667  1.0  0.1528
  Au  Au97  1  0.706230  0.000000  0.000000  1.0  0.1524
  Au  Au98  1  0.372900  0.333333  0.333333  1.0  0.1521
  Au  Au99  1  0.039560  0.666667  0.666667  1.0  0.1525
  C  C100  1  0.073000  0.323500  0.116100  1.0  0.0334
  C  C101  1  0.151500  0.215300  0.339700  1.0  0.1946
  C  C102  1  0.122600  0.154100  0.337900  1.0  -0.1034
  C  C103  1  0.739670  0.656830  0.449430  1.0  0.0334
  C  C104  1  0.818170  0.548630  0.673030  1.0  0.1946
  C  C105  1  0.789270  0.487430  0.671230  1.0  -0.1034
  C  C106  1  0.406330  0.990170  0.782770  1.0  0.0309
  C  C107  1  0.484830  0.881970  0.006370  1.0  0.1938
  C  C108  1  0.455930  0.820770  0.004570  1.0  -0.1036
  C  C109  1  0.676500  0.749500  0.116100  1.0  0.0287
  C  C110  1  0.784700  0.936200  0.339700  1.0  0.1952
  C  C111  1  0.845900  0.968500  0.337900  1.0  -0.1043
  C  C112  1  0.343170  0.082830  0.449430  1.0  0.0287
  C  C113  1  0.451370  0.269530  0.673030  1.0  0.1952
  C  C114  1  0.512570  0.301830  0.671230  1.0  -0.1043
  C  C115  1  0.009830  0.416170  0.782770  1.0  0.0325
  C  C116  1  0.118030  0.602870  0.006370  1.0  0.1946
  C  C117  1  0.179230  0.635170  0.004570  1.0  -0.1044
  C  C118  1  0.250500  0.927000  0.116100  1.0  0.0284
  C  C119  1  0.063800  0.848500  0.339700  1.0  0.1927
  C  C120  1  0.031500  0.877400  0.337900  1.0  -0.1024
  C  C121  1  0.917170  0.260330  0.449430  1.0  0.0284
  C  C122  1  0.730470  0.181830  0.673030  1.0  0.1927
  C  C123  1  0.698170  0.210730  0.671230  1.0  -0.1024
  C  C124  1  0.583830  0.593670  0.782770  1.0  0.0284
  C  C125  1  0.397130  0.515170  0.006370  1.0  0.193
  C  C126  1  0.364830  0.544070  0.004570  1.0  -0.1023
  C  C127  1  0.323500  0.073000  0.883900  1.0  0.0278
  C  C128  1  0.215300  0.151500  0.660300  1.0  0.1933
  C  C129  1  0.154100  0.122600  0.662100  1.0  -0.1037
  C  C130  1  0.990170  0.406330  0.217230  1.0  0.0257
  C  C131  1  0.881970  0.484830  0.993630  1.0  0.1926
  C  C132  1  0.820770  0.455930  0.995430  1.0  -0.1038
  C  C133  1  0.656830  0.739670  0.550570  1.0  0.0277
  C  C134  1  0.548630  0.818170  0.326970  1.0  0.1933
  C  C135  1  0.487430  0.789270  0.328770  1.0  -0.1037
  C  C136  1  0.749500  0.676500  0.883900  1.0  0.0275
  C  C137  1  0.936200  0.784700  0.660300  1.0  0.1935
  C  C138  1  0.968500  0.845900  0.662100  1.0  -0.1033
  C  C139  1  0.416170  0.009830  0.217230  1.0  0.0311
  C  C140  1  0.602870  0.118030  0.993630  1.0  0.1927
  C  C141  1  0.635170  0.179230  0.995430  1.0  -0.1034
  C  C142  1  0.082830  0.343170  0.550570  1.0  0.0274
  C  C143  1  0.269530  0.451370  0.326970  1.0  0.1935
  C  C144  1  0.301830  0.512570  0.328770  1.0  -0.1033
  C  C145  1  0.927000  0.250500  0.883900  1.0  0.0257
  C  C146  1  0.848500  0.063800  0.660300  1.0  0.1938
  C  C147  1  0.877400  0.031500  0.662100  1.0  -0.1027
  C  C148  1  0.593670  0.583830  0.217230  1.0  0.0257
  C  C149  1  0.515170  0.397130  0.993630  1.0  0.1941
  C  C150  1  0.544070  0.364830  0.995430  1.0  -0.1025
  C  C151  1  0.260330  0.917170  0.550570  1.0  0.0257
  C  C152  1  0.181830  0.730470  0.326970  1.0  0.1937
  C  C153  1  0.210730  0.698170  0.328770  1.0  -0.1027
  C  C154  1  0.927000  0.676500  0.883900  1.0  0.0298
  C  C155  1  0.848500  0.784700  0.660300  1.0  0.1974
  C  C156  1  0.877400  0.845900  0.662100  1.0  -0.1065
  C  C157  1  0.593670  0.009830  0.217230  1.0  0.0278
  C  C158  1  0.515170  0.118030  0.993630  1.0  0.1968
  C  C159  1  0.544070  0.179230  0.995430  1.0  -0.1066
  C  C160  1  0.260330  0.343170  0.550570  1.0  0.0298
  C  C161  1  0.181830  0.451370  0.326970  1.0  0.1974
  C  C162  1  0.210730  0.512570  0.328770  1.0  -0.1065
  C  C163  1  0.323500  0.250500  0.883900  1.0  0.0257
  C  C164  1  0.215300  0.063800  0.660300  1.0  0.1966
  C  C165  1  0.154100  0.031500  0.662100  1.0  -0.1034
  C  C166  1  0.990170  0.583830  0.217230  1.0  0.0293
  C  C167  1  0.881970  0.397130  0.993630  1.0  0.1959
  C  C168  1  0.820770  0.364830  0.995430  1.0  -0.1035
  C  C169  1  0.656830  0.917170  0.550570  1.0  0.0257
  C  C170  1  0.548630  0.730470  0.326970  1.0  0.1966
  C  C171  1  0.487430  0.698170  0.328770  1.0  -0.1034
  C  C172  1  0.749500  0.073000  0.883900  1.0  0.0258
  C  C173  1  0.936200  0.151500  0.660300  1.0  0.1965
  C  C174  1  0.968500  0.122600  0.662100  1.0  -0.1046
  C  C175  1  0.416170  0.406330  0.217230  1.0  0.0258
  C  C176  1  0.602870  0.484830  0.993630  1.0  0.1967
  C  C177  1  0.635170  0.455930  0.995430  1.0  -0.1044
  C  C178  1  0.082830  0.739670  0.550570  1.0  0.0258
  C  C179  1  0.269530  0.818170  0.326970  1.0  0.1965
  C  C180  1  0.301830  0.789270  0.328770  1.0  -0.1046
  C  C181  1  0.676500  0.927000  0.116100  1.0  0.0304
  C  C182  1  0.784700  0.848500  0.339700  1.0  0.1951
  C  C183  1  0.845900  0.877400  0.337900  1.0  -0.1052
  C  C184  1  0.343170  0.260330  0.449430  1.0  0.0304
  C  C185  1  0.451370  0.181830  0.673030  1.0  0.1951
  C  C186  1  0.512570  0.210730  0.671230  1.0  -0.1052
  C  C187  1  0.009830  0.593670  0.782770  1.0  0.0278
  C  C188  1  0.118030  0.515170  0.006370  1.0  0.1946
  C  C189  1  0.179230  0.544070  0.004570  1.0  -0.1054
  C  C190  1  0.250500  0.323500  0.116100  1.0  0.0304
  C  C191  1  0.063800  0.215300  0.339700  1.0  0.1981
  C  C192  1  0.031500  0.154100  0.337900  1.0  -0.1046
  C  C193  1  0.917170  0.656830  0.449430  1.0  0.0304
  C  C194  1  0.730470  0.548630  0.673030  1.0  0.1981
  C  C195  1  0.698170  0.487430  0.671230  1.0  -0.1046
  C  C196  1  0.583830  0.990170  0.782770  1.0  0.034
  C  C197  1  0.397130  0.881970  0.006370  1.0  0.1974
  C  C198  1  0.364830  0.820770  0.004570  1.0  -0.1047
  C  C199  1  0.073000  0.749500  0.116100  1.0  0.0284
  C  C200  1  0.151500  0.936200  0.339700  1.0  0.198
  C  C201  1  0.122600  0.968500  0.337900  1.0  -0.1064
  C  C202  1  0.739670  0.082830  0.449430  1.0  0.0284
  C  C203  1  0.818170  0.269530  0.673030  1.0  0.198
  C  C204  1  0.789270  0.301830  0.671230  1.0  -0.1064
  C  C205  1  0.406330  0.416170  0.782770  1.0  0.0284
  C  C206  1  0.484830  0.602870  0.006370  1.0  0.1984
  C  C207  1  0.455930  0.635170  0.004570  1.0  -0.1063
  C  C208  1  0.060950  0.121900  0.335300  1.0  -0.0614
  C  C209  1  0.029050  0.058100  0.333900  1.0  0.404
  C  C210  1  0.727620  0.455230  0.668630  1.0  -0.0614
  C  C211  1  0.695720  0.391430  0.667230  1.0  0.404
  C  C212  1  0.394280  0.788570  0.001970  1.0  -0.0618
  C  C213  1  0.362380  0.724770  0.000570  1.0  0.404
  C  C214  1  0.878100  0.939050  0.335300  1.0  -0.0637
  C  C215  1  0.941900  0.970950  0.333900  1.0  0.4042
  C  C216  1  0.544770  0.272380  0.668630  1.0  -0.0637
  C  C217  1  0.608570  0.304280  0.667230  1.0  0.4042
  C  C218  1  0.211430  0.605720  0.001970  1.0  -0.064
  C  C219  1  0.275230  0.637620  0.000570  1.0  0.4042
  C  C220  1  0.060950  0.939050  0.335300  1.0  -0.0637
  C  C221  1  0.029050  0.970950  0.333900  1.0  0.4023
  C  C222  1  0.727620  0.272380  0.668630  1.0  -0.0637
  C  C223  1  0.695720  0.304280  0.667230  1.0  0.4023
  C  C224  1  0.394280  0.605720  0.001970  1.0  -0.0636
  C  C225  1  0.362380  0.637620  0.000570  1.0  0.4023
  C  C226  1  0.121900  0.060950  0.664700  1.0  -0.0655
  C  C227  1  0.058100  0.029050  0.666100  1.0  0.4065
  C  C228  1  0.788570  0.394280  0.998030  1.0  -0.0659
  C  C229  1  0.724770  0.362380  0.999430  1.0  0.4065
  C  C230  1  0.455230  0.727620  0.331370  1.0  -0.0654
  C  C231  1  0.391430  0.695720  0.332770  1.0  0.4065
  C  C232  1  0.939050  0.878100  0.664700  1.0  -0.0624
  C  C233  1  0.970950  0.941900  0.666100  1.0  0.407
  C  C234  1  0.605720  0.211430  0.998030  1.0  -0.0629
  C  C235  1  0.637620  0.275230  0.999430  1.0  0.407
  C  C236  1  0.272380  0.544770  0.331370  1.0  -0.0624
  C  C237  1  0.304280  0.608570  0.332770  1.0  0.407
  C  C238  1  0.939050  0.060950  0.664700  1.0  -0.0671
  C  C239  1  0.970950  0.029050  0.666100  1.0  0.4074
  C  C240  1  0.605720  0.394280  0.998030  1.0  -0.067
  C  C241  1  0.637620  0.362380  0.999430  1.0  0.4074
  C  C242  1  0.272380  0.727620  0.331370  1.0  -0.0671
  C  C243  1  0.304280  0.695720  0.332770  1.0  0.4074
  N  N244  1  0.112000  0.331100  0.189300  1.0  -0.3388
  N  N245  1  0.778670  0.664430  0.522630  1.0  -0.3389
  N  N246  1  0.445330  0.997770  0.855970  1.0  -0.3402
  N  N247  1  0.668900  0.780900  0.189300  1.0  -0.3408
  N  N248  1  0.335570  0.114230  0.522630  1.0  -0.3407
  N  N249  1  0.002230  0.447570  0.855970  1.0  -0.3399
  N  N250  1  0.219100  0.888000  0.189300  1.0  -0.3415
  N  N251  1  0.885770  0.221330  0.522630  1.0  -0.3415
  N  N252  1  0.552430  0.554670  0.855970  1.0  -0.3415
  N  N253  1  0.331100  0.112000  0.810700  1.0  -0.3416
  N  N254  1  0.997770  0.445330  0.144030  1.0  -0.3428
  N  N255  1  0.664430  0.778670  0.477370  1.0  -0.3416
  N  N256  1  0.780900  0.668900  0.810700  1.0  -0.3416
  N  N257  1  0.447570  0.002230  0.144030  1.0  -0.3405
  N  N258  1  0.114230  0.335570  0.477370  1.0  -0.3416
  N  N259  1  0.888000  0.219100  0.810700  1.0  -0.3415
  N  N260  1  0.554670  0.552430  0.144030  1.0  -0.3415
  N  N261  1  0.221330  0.885770  0.477370  1.0  -0.3415
  N  N262  1  0.888000  0.668900  0.810700  1.0  -0.3393
  N  N263  1  0.554670  0.002230  0.144030  1.0  -0.3403
  N  N264  1  0.221330  0.335570  0.477370  1.0  -0.3393
  N  N265  1  0.331100  0.219100  0.810700  1.0  -0.3426
  N  N266  1  0.997770  0.552430  0.144030  1.0  -0.3417
  N  N267  1  0.664430  0.885770  0.477370  1.0  -0.3426
  N  N268  1  0.780900  0.112000  0.810700  1.0  -0.3423
  N  N269  1  0.447570  0.445330  0.144030  1.0  -0.3423
  N  N270  1  0.114230  0.778670  0.477370  1.0  -0.3423
  N  N271  1  0.668900  0.888000  0.189300  1.0  -0.339
  N  N272  1  0.335570  0.221330  0.522630  1.0  -0.3389
  N  N273  1  0.002230  0.554670  0.855970  1.0  -0.3402
  N  N274  1  0.219100  0.331100  0.189300  1.0  -0.3402
  N  N275  1  0.885770  0.664430  0.522630  1.0  -0.3402
  N  N276  1  0.552430  0.997770  0.855970  1.0  -0.3395
  N  N277  1  0.112000  0.780900  0.189300  1.0  -0.3401
  N  N278  1  0.778670  0.114230  0.522630  1.0  -0.3401
  N  N279  1  0.445330  0.447570  0.855970  1.0  -0.34
  N  N280  1  0.210500  0.421000  0.329800  1.0  -0.2776
  N  N281  1  0.877170  0.754330  0.663130  1.0  -0.2776
  N  N282  1  0.543830  0.087670  0.996470  1.0  -0.2833
  N  N283  1  0.579000  0.789500  0.329800  1.0  -0.2767
  N  N284  1  0.245670  0.122830  0.663130  1.0  -0.2767
  N  N285  1  0.912330  0.456170  0.996470  1.0  -0.2807
  N  N286  1  0.210500  0.789500  0.329800  1.0  -0.2802
  N  N287  1  0.877170  0.122830  0.663130  1.0  -0.2822
  N  N288  1  0.543830  0.456170  0.996470  1.0  -0.2791
  N  N289  1  0.421000  0.210500  0.670200  1.0  -0.2797
  N  N290  1  0.087670  0.543830  0.003530  1.0  -0.2843
  N  N291  1  0.754330  0.877170  0.336870  1.0  -0.2797
  N  N292  1  0.789500  0.579000  0.670200  1.0  -0.2772
  N  N293  1  0.456170  0.912330  0.003530  1.0  -0.2835
  N  N294  1  0.122830  0.245670  0.336870  1.0  -0.2772
  N  N295  1  0.789500  0.210500  0.670200  1.0  -0.2788
  N  N296  1  0.456170  0.543830  0.003530  1.0  -0.2778
  N  N297  1  0.122830  0.877170  0.336870  1.0  -0.2799
  N  N298  1  0.060500  0.030250  0.332500  1.0  -0.5117
  N  N299  1  0.727170  0.363580  0.665830  1.0  -0.5117
  N  N300  1  0.393830  0.696920  0.999170  1.0  -0.5117
  N  N301  1  0.969750  0.030250  0.332500  1.0  -0.5128
  N  N302  1  0.636420  0.363580  0.665830  1.0  -0.5128
  N  N303  1  0.303080  0.696920  0.999170  1.0  -0.5128
  N  N304  1  0.969750  0.939500  0.332500  1.0  -0.5124
  N  N305  1  0.636420  0.272830  0.665830  1.0  -0.5124
  N  N306  1  0.303080  0.606170  0.999170  1.0  -0.5124
  N  N307  1  0.030250  0.060500  0.667500  1.0  -0.5133
  N  N308  1  0.696920  0.393830  0.000830  1.0  -0.5133
  N  N309  1  0.363580  0.727170  0.334170  1.0  -0.5133
  N  N310  1  0.030250  0.969750  0.667500  1.0  -0.5107
  N  N311  1  0.696920  0.303080  0.000830  1.0  -0.5107
  N  N312  1  0.363580  0.636420  0.334170  1.0  -0.5107
  N  N313  1  0.939500  0.969750  0.667500  1.0  -0.5153
  N  N314  1  0.606170  0.303080  0.000830  1.0  -0.5153
  N  N315  1  0.272830  0.636420  0.334170  1.0  -0.5153
