# generated using pymatgen
data_FeH8Au2(C2N)8
_symmetry_space_group_name_H-M   'P 1'
_cell_length_a   26.85200000
_cell_length_b   26.85200000
_cell_length_c   9.67350000
_cell_angle_alpha   90.00000000
_cell_angle_beta   90.00000000
_cell_angle_gamma   120.00000000
_symmetry_Int_Tables_number   1
_chemical_formula_structural   FeH8Au2(C2N)8
_chemical_formula_sum   'Fe9 H72 Au18 C144 N72'
_cell_volume   6040.42567273
_cell_formula_units_Z   9
loop_
 _symmetry_equiv_pos_site_id
 _symmetry_equiv_pos_as_xyz
  1  'x, y, z'
loop_
 _atom_site_type_symbol
 _atom_site_label
 _atom_site_symmetry_multiplicity
 _atom_site_fract_x
 _atom_site_fract_y
 _atom_site_fract_z
 _atom_site_occupancy
 _atom_site_charge
  Fe  Fe1  1  0.500000  0.000000  0.000000  1.0  0.5092
  Fe  Fe2  1  0.166670  0.333333  0.333333  1.0  0.5262
  Fe  Fe3  1  0.833330  0.666667  0.666667  1.0  0.5254
  Fe  Fe4  1  0.000000  0.500000  0.000000  1.0  0.5092
  Fe  Fe5  1  0.666667  0.833330  0.333333  1.0  0.5263
  Fe  Fe6  1  0.333333  0.166670  0.666667  1.0  0.5252
  Fe  Fe7  1  0.500000  0.500000  0.000000  1.0  0.5092
  Fe  Fe8  1  0.166670  0.833330  0.333333  1.0  0.5261
  Fe  Fe9  1  0.833330  0.166670  0.666667  1.0  0.5254
  H  H10  1  0.521500  0.896500  0.990000  1.0  0.1256
  H  H11  1  0.474500  0.799100  0.998700  1.0  0.1289
  H  H12  1  0.188170  0.229830  0.323330  1.0  0.1256
  H  H13  1  0.141170  0.132430  0.332030  1.0  0.1321
  H  H14  1  0.854830  0.563170  0.656670  1.0  0.1256
  H  H15  1  0.807830  0.465770  0.665370  1.0  0.1289
  H  H16  1  0.103500  0.625000  0.990000  1.0  0.1249
  H  H17  1  0.200900  0.675400  0.998700  1.0  0.1275
  H  H18  1  0.770170  0.958330  0.323330  1.0  0.1249
  H  H19  1  0.867570  0.008730  0.332030  1.0  0.1275
  H  H20  1  0.436830  0.291670  0.656670  1.0  0.1249
  H  H21  1  0.534230  0.342070  0.665370  1.0  0.1275
  H  H22  1  0.375000  0.478500  0.990000  1.0  0.1244
  H  H23  1  0.324600  0.525500  0.998700  1.0  0.1325
  H  H24  1  0.041670  0.811830  0.323330  1.0  0.1244
  H  H25  1  0.991270  0.858830  0.332030  1.0  0.1292
  H  H26  1  0.708330  0.145170  0.656670  1.0  0.1244
  H  H27  1  0.657930  0.192170  0.665370  1.0  0.1325
  H  H28  1  0.896500  0.521500  0.010000  1.0  0.1245
  H  H29  1  0.799100  0.474500  0.001300  1.0  0.13
  H  H30  1  0.563170  0.854830  0.343330  1.0  0.1245
  H  H31  1  0.465770  0.807830  0.334630  1.0  0.13
  H  H32  1  0.229830  0.188170  0.676670  1.0  0.1244
  H  H33  1  0.132430  0.141170  0.667970  1.0  0.1331
  H  H34  1  0.625000  0.103500  0.010000  1.0  0.1257
  H  H35  1  0.675400  0.200900  0.001300  1.0  0.1291
  H  H36  1  0.291670  0.436830  0.343330  1.0  0.1257
  H  H37  1  0.342070  0.534230  0.334630  1.0  0.1291
  H  H38  1  0.958330  0.770170  0.676670  1.0  0.1257
  H  H39  1  0.008730  0.867570  0.667970  1.0  0.1291
  H  H40  1  0.478500  0.375000  0.010000  1.0  0.1251
  H  H41  1  0.525500  0.324600  0.001300  1.0  0.1319
  H  H42  1  0.145170  0.708330  0.343330  1.0  0.1251
  H  H43  1  0.192170  0.657930  0.334630  1.0  0.1319
  H  H44  1  0.811830  0.041670  0.676670  1.0  0.1251
  H  H45  1  0.858830  0.991270  0.667970  1.0  0.1283
  H  H46  1  0.478500  0.103500  0.010000  1.0  0.1259
  H  H47  1  0.525500  0.200900  0.001300  1.0  0.1296
  H  H48  1  0.145170  0.436830  0.343330  1.0  0.1259
  H  H49  1  0.192170  0.534230  0.334630  1.0  0.1296
  H  H50  1  0.811830  0.770170  0.676670  1.0  0.1259
  H  H51  1  0.858830  0.867570  0.667970  1.0  0.133
  H  H52  1  0.896500  0.375000  0.010000  1.0  0.1248
  H  H53  1  0.799100  0.324600  0.001300  1.0  0.1284
  H  H54  1  0.563170  0.708330  0.343330  1.0  0.1248
  H  H55  1  0.465770  0.657930  0.334630  1.0  0.1284
  H  H56  1  0.229830  0.041670  0.676670  1.0  0.1248
  H  H57  1  0.132430  0.991270  0.667970  1.0  0.1284
  H  H58  1  0.625000  0.521500  0.010000  1.0  0.1246
  H  H59  1  0.675400  0.474500  0.001300  1.0  0.1332
  H  H60  1  0.291670  0.854830  0.343330  1.0  0.1246
  H  H61  1  0.342070  0.807830  0.334630  1.0  0.1332
  H  H62  1  0.958330  0.188170  0.676670  1.0  0.1246
  H  H63  1  0.008730  0.141170  0.667970  1.0  0.1302
  H  H64  1  0.103500  0.478500  0.990000  1.0  0.1247
  H  H65  1  0.200900  0.525500  0.998700  1.0  0.1292
  H  H66  1  0.770170  0.811830  0.323330  1.0  0.1247
  H  H67  1  0.867570  0.858830  0.332030  1.0  0.1324
  H  H68  1  0.436830  0.145170  0.656670  1.0  0.1247
  H  H69  1  0.534230  0.192170  0.665370  1.0  0.1292
  H  H70  1  0.375000  0.896500  0.990000  1.0  0.1258
  H  H71  1  0.324600  0.799100  0.998700  1.0  0.1291
  H  H72  1  0.041670  0.229830  0.323330  1.0  0.1258
  H  H73  1  0.991270  0.132430  0.332030  1.0  0.1291
  H  H74  1  0.708330  0.563170  0.656670  1.0  0.1258
  H  H75  1  0.657930  0.465770  0.665370  1.0  0.1291
  H  H76  1  0.521500  0.625000  0.990000  1.0  0.1249
  H  H77  1  0.474500  0.675400  0.998700  1.0  0.1319
  H  H78  1  0.188170  0.958330  0.323330  1.0  0.1249
  H  H79  1  0.141170  0.008730  0.332030  1.0  0.1275
  H  H80  1  0.854830  0.291670  0.656670  1.0  0.1249
  H  H81  1  0.807830  0.342070  0.665370  1.0  0.1319
  Au  Au82  1  0.666667  0.039730  0.333333  1.0  0.1748
  Au  Au83  1  0.960270  0.626930  0.333333  1.0  0.1749
  Au  Au84  1  0.373070  0.333333  0.333333  1.0  0.1746
  Au  Au85  1  0.039730  0.666667  0.666667  1.0  0.1712
  Au  Au86  1  0.706400  0.000000  0.000000  1.0  0.1745
  Au  Au87  1  0.626930  0.960270  0.666667  1.0  0.1733
  Au  Au88  1  0.293600  0.293600  0.000000  1.0  0.175
  Au  Au89  1  0.333333  0.373070  0.666667  1.0  0.175
  Au  Au90  1  0.000000  0.706400  0.000000  1.0  0.175
  Au  Au91  1  0.333333  0.960270  0.666667  1.0  0.1745
  Au  Au92  1  0.000000  0.293600  0.000000  1.0  0.1744
  Au  Au93  1  0.039730  0.373070  0.666667  1.0  0.1745
  Au  Au94  1  0.706400  0.706400  0.000000  1.0  0.1747
  Au  Au95  1  0.626930  0.666667  0.666667  1.0  0.1734
  Au  Au96  1  0.293600  0.000000  0.000000  1.0  0.1735
  Au  Au97  1  0.960270  0.333333  0.333333  1.0  0.1735
  Au  Au98  1  0.373070  0.039730  0.333333  1.0  0.1711
  Au  Au99  1  0.666667  0.626930  0.333333  1.0  0.1744
  C  C100  1  0.481500  0.876300  0.994000  1.0  0.1786
  C  C101  1  0.453200  0.817800  0.999000  1.0  -0.0691
  C  C102  1  0.597000  0.010400  0.220000  1.0  0.0482
  C  C103  1  0.148170  0.209630  0.327330  1.0  0.1744
  C  C104  1  0.119870  0.151130  0.332330  1.0  -0.0736
  C  C105  1  0.263670  0.343730  0.553330  1.0  0.05
  C  C106  1  0.814830  0.542970  0.660670  1.0  0.1746
  C  C107  1  0.786530  0.484470  0.665670  1.0  -0.0691
  C  C108  1  0.930330  0.677070  0.886670  1.0  0.0434
  C  C109  1  0.123700  0.605200  0.994000  1.0  0.1744
  C  C110  1  0.182200  0.635400  0.999000  1.0  -0.0741
  C  C111  1  0.989600  0.586600  0.220000  1.0  0.0434
  C  C112  1  0.790370  0.938530  0.327330  1.0  0.1735
  C  C113  1  0.848870  0.968730  0.332330  1.0  -0.0704
  C  C114  1  0.656270  0.919930  0.553330  1.0  0.0434
  C  C115  1  0.457030  0.271870  0.660670  1.0  0.1744
  C  C116  1  0.515530  0.302070  0.665670  1.0  -0.0742
  C  C117  1  0.322930  0.253270  0.886670  1.0  0.0469
  C  C118  1  0.394800  0.518500  0.994000  1.0  0.1791
  C  C119  1  0.364600  0.546800  0.999000  1.0  -0.0767
  C  C120  1  0.413400  0.403000  0.220000  1.0  0.0492
  C  C121  1  0.061470  0.851830  0.327330  1.0  0.1791
  C  C122  1  0.031270  0.880130  0.332330  1.0  -0.0768
  C  C123  1  0.080070  0.736330  0.553330  1.0  0.0476
  C  C124  1  0.728130  0.185170  0.660670  1.0  0.1791
  C  C125  1  0.697930  0.213470  0.665670  1.0  -0.0769
  C  C126  1  0.746730  0.069670  0.886670  1.0  0.0492
  C  C127  1  0.876300  0.481500  0.006000  1.0  0.1781
  C  C128  1  0.817800  0.453200  0.001000  1.0  -0.0738
  C  C129  1  0.010400  0.597000  0.780000  1.0  0.0467
  C  C130  1  0.542970  0.814830  0.339330  1.0  0.1784
  C  C131  1  0.484470  0.786530  0.334330  1.0  -0.0738
  C  C132  1  0.677070  0.930330  0.113330  1.0  0.042
  C  C133  1  0.209630  0.148170  0.672670  1.0  0.1774
  C  C134  1  0.151130  0.119870  0.667670  1.0  -0.0784
  C  C135  1  0.343730  0.263670  0.446670  1.0  0.0484
  C  C136  1  0.605200  0.123700  0.006000  1.0  0.1739
  C  C137  1  0.635400  0.182200  0.001000  1.0  -0.0736
  C  C138  1  0.586600  0.989600  0.780000  1.0  0.044
  C  C139  1  0.271870  0.457030  0.339330  1.0  0.1738
  C  C140  1  0.302070  0.515530  0.334330  1.0  -0.0737
  C  C141  1  0.253270  0.322930  0.113330  1.0  0.0478
  C  C142  1  0.938530  0.790370  0.672670  1.0  0.1744
  C  C143  1  0.968730  0.848870  0.667670  1.0  -0.0698
  C  C144  1  0.919930  0.656270  0.446670  1.0  0.044
  C  C145  1  0.518500  0.394800  0.006000  1.0  0.1769
  C  C146  1  0.546800  0.364600  0.001000  1.0  -0.0706
  C  C147  1  0.403000  0.413400  0.780000  1.0  0.0495
  C  C148  1  0.185170  0.728130  0.339330  1.0  0.1777
  C  C149  1  0.213470  0.697930  0.334330  1.0  -0.0708
  C  C150  1  0.069670  0.746730  0.113330  1.0  0.0495
  C  C151  1  0.851830  0.061470  0.672670  1.0  0.1777
  C  C152  1  0.880130  0.031270  0.667670  1.0  -0.0706
  C  C153  1  0.736330  0.080070  0.446670  1.0  0.0478
  C  C154  1  0.518500  0.123700  0.006000  1.0  0.1778
  C  C155  1  0.546800  0.182200  0.001000  1.0  -0.0699
  C  C156  1  0.403000  0.989600  0.780000  1.0  0.0487
  C  C157  1  0.185170  0.457030  0.339330  1.0  0.178
  C  C158  1  0.213470  0.515530  0.334330  1.0  -0.0699
  C  C159  1  0.069670  0.322930  0.113330  1.0  0.0447
  C  C160  1  0.851830  0.790370  0.672670  1.0  0.1778
  C  C161  1  0.880130  0.848870  0.667670  1.0  -0.0736
  C  C162  1  0.736330  0.656270  0.446670  1.0  0.0505
  C  C163  1  0.876300  0.394800  0.006000  1.0  0.1765
  C  C164  1  0.817800  0.364600  0.001000  1.0  -0.0762
  C  C165  1  0.010400  0.413400  0.780000  1.0  0.043
  C  C166  1  0.542970  0.728130  0.339330  1.0  0.177
  C  C167  1  0.484470  0.697930  0.334330  1.0  -0.0763
  C  C168  1  0.677070  0.746730  0.113330  1.0  0.0469
  C  C169  1  0.209630  0.061470  0.672670  1.0  0.1784
  C  C170  1  0.151130  0.031270  0.667670  1.0  -0.0717
  C  C171  1  0.343730  0.080070  0.446670  1.0  0.043
  C  C172  1  0.605200  0.481500  0.006000  1.0  0.1738
  C  C173  1  0.635400  0.453200  0.001000  1.0  -0.0715
  C  C174  1  0.586600  0.597000  0.780000  1.0  0.0481
  C  C175  1  0.271870  0.814830  0.339330  1.0  0.1744
  C  C176  1  0.302070  0.786530  0.334330  1.0  -0.0716
  C  C177  1  0.253270  0.930330  0.113330  1.0  0.0481
  C  C178  1  0.938530  0.148170  0.672670  1.0  0.174
  C  C179  1  0.968730  0.119870  0.667670  1.0  -0.0715
  C  C180  1  0.919930  0.263670  0.446670  1.0  0.0464
  C  C181  1  0.123700  0.518500  0.994000  1.0  0.1772
  C  C182  1  0.182200  0.546800  0.999000  1.0  -0.0679
  C  C183  1  0.989600  0.403000  0.220000  1.0  0.0472
  C  C184  1  0.790370  0.851830  0.327330  1.0  0.177
  C  C185  1  0.848870  0.880130  0.332330  1.0  -0.0722
  C  C186  1  0.656270  0.736330  0.553330  1.0  0.049
  C  C187  1  0.457030  0.185170  0.660670  1.0  0.1772
  C  C188  1  0.515530  0.213470  0.665670  1.0  -0.0679
  C  C189  1  0.322930  0.069670  0.886670  1.0  0.0424
  C  C190  1  0.394800  0.876300  0.994000  1.0  0.1797
  C  C191  1  0.364600  0.817800  0.999000  1.0  -0.0728
  C  C192  1  0.413400  0.010400  0.220000  1.0  0.0454
  C  C193  1  0.061470  0.209630  0.327330  1.0  0.1793
  C  C194  1  0.031270  0.151130  0.332330  1.0  -0.0686
  C  C195  1  0.080070  0.343730  0.553330  1.0  0.0454
  C  C196  1  0.728130  0.542970  0.660670  1.0  0.1784
  C  C197  1  0.697930  0.484470  0.665670  1.0  -0.0729
  C  C198  1  0.746730  0.677070  0.886670  1.0  0.0487
  C  C199  1  0.481500  0.605200  0.994000  1.0  0.1743
  C  C200  1  0.453200  0.635400  0.999000  1.0  -0.0753
  C  C201  1  0.597000  0.586600  0.220000  1.0  0.0475
  C  C202  1  0.148170  0.938530  0.327330  1.0  0.1737
  C  C203  1  0.119870  0.968730  0.332330  1.0  -0.0753
  C  C204  1  0.263670  0.919930  0.553330  1.0  0.0458
  C  C205  1  0.814830  0.271870  0.660670  1.0  0.1743
  C  C206  1  0.786530  0.302070  0.665670  1.0  -0.0754
  C  C207  1  0.930330  0.253270  0.886670  1.0  0.0475
  C  C208  1  0.392100  0.784200  0.005000  1.0  -0.0731
  C  C209  1  0.361750  0.723500  0.996000  1.0  0.3618
  C  C210  1  0.058770  0.117530  0.338330  1.0  -0.0731
  C  C211  1  0.028420  0.056830  0.329330  1.0  0.3618
  C  C212  1  0.725430  0.450870  0.671670  1.0  -0.0731
  C  C213  1  0.695080  0.390170  0.662670  1.0  0.3618
  C  C214  1  0.215800  0.607900  0.005000  1.0  -0.0753
  C  C215  1  0.276500  0.638250  0.996000  1.0  0.361
  C  C216  1  0.882470  0.941230  0.338330  1.0  -0.0753
  C  C217  1  0.943170  0.971580  0.329330  1.0  0.3611
  C  C218  1  0.549130  0.274570  0.671670  1.0  -0.0753
  C  C219  1  0.609830  0.304920  0.662670  1.0  0.361
  C  C220  1  0.392100  0.607900  0.005000  1.0  -0.0768
  C  C221  1  0.361750  0.638250  0.996000  1.0  0.3598
  C  C222  1  0.058770  0.941230  0.338330  1.0  -0.0768
  C  C223  1  0.028420  0.971580  0.329330  1.0  0.3586
  C  C224  1  0.725430  0.274570  0.671670  1.0  -0.0768
  C  C225  1  0.695080  0.304920  0.662670  1.0  0.3598
  C  C226  1  0.784200  0.392100  0.995000  1.0  -0.0748
  C  C227  1  0.723500  0.361750  0.004000  1.0  0.3638
  C  C228  1  0.450870  0.725430  0.328330  1.0  -0.0748
  C  C229  1  0.390170  0.695080  0.337330  1.0  0.3638
  C  C230  1  0.117530  0.058770  0.661670  1.0  -0.0748
  C  C231  1  0.056830  0.028420  0.670670  1.0  0.3639
  C  C232  1  0.607900  0.215800  0.995000  1.0  -0.0723
  C  C233  1  0.638250  0.276500  0.004000  1.0  0.3643
  C  C234  1  0.274570  0.549130  0.328330  1.0  -0.0723
  C  C235  1  0.304920  0.609830  0.337330  1.0  0.3643
  C  C236  1  0.941230  0.882470  0.661670  1.0  -0.0723
  C  C237  1  0.971580  0.943170  0.670670  1.0  0.3643
  C  C238  1  0.607900  0.392100  0.995000  1.0  -0.0747
  C  C239  1  0.638250  0.361750  0.004000  1.0  0.3627
  C  C240  1  0.274570  0.725430  0.328330  1.0  -0.0747
  C  C241  1  0.304920  0.695080  0.337330  1.0  0.3627
  C  C242  1  0.941230  0.058770  0.661670  1.0  -0.0747
  C  C243  1  0.971580  0.028420  0.670670  1.0  0.3612
  N  N244  1  0.557700  0.999300  0.151400  1.0  -0.3767
  N  N245  1  0.224370  0.332630  0.484730  1.0  -0.3878
  N  N246  1  0.891030  0.665970  0.818070  1.0  -0.3767
  N  N247  1  0.000700  0.558400  0.151400  1.0  -0.3891
  N  N248  1  0.667370  0.891730  0.484730  1.0  -0.3777
  N  N249  1  0.334030  0.225070  0.818070  1.0  -0.3891
  N  N250  1  0.441600  0.442300  0.151400  1.0  -0.3904
  N  N251  1  0.108270  0.775630  0.484730  1.0  -0.3904
  N  N252  1  0.774930  0.108970  0.818070  1.0  -0.3904
  N  N253  1  0.999300  0.557700  0.848600  1.0  -0.3778
  N  N254  1  0.665970  0.891030  0.181930  1.0  -0.3778
  N  N255  1  0.332630  0.224370  0.515270  1.0  -0.3892
  N  N256  1  0.558400  0.000700  0.848600  1.0  -0.3876
  N  N257  1  0.225070  0.334030  0.181930  1.0  -0.3876
  N  N258  1  0.891730  0.667370  0.515270  1.0  -0.3767
  N  N259  1  0.442300  0.441600  0.848600  1.0  -0.3873
  N  N260  1  0.108970  0.774930  0.181930  1.0  -0.3873
  N  N261  1  0.775630  0.108270  0.515270  1.0  -0.3873
  N  N262  1  0.442300  0.000700  0.848600  1.0  -0.3758
  N  N263  1  0.108970  0.334030  0.181930  1.0  -0.3758
  N  N264  1  0.775630  0.667370  0.515270  1.0  -0.3873
  N  N265  1  0.999300  0.441600  0.848600  1.0  -0.3878
  N  N266  1  0.665970  0.774930  0.181930  1.0  -0.3878
  N  N267  1  0.332630  0.108270  0.515270  1.0  -0.3765
  N  N268  1  0.558400  0.557700  0.848600  1.0  -0.3896
  N  N269  1  0.225070  0.891030  0.181930  1.0  -0.3896
  N  N270  1  0.891730  0.224370  0.515270  1.0  -0.3896
  N  N271  1  0.000700  0.442300  0.151400  1.0  -0.3787
  N  N272  1  0.667370  0.775630  0.484730  1.0  -0.3902
  N  N273  1  0.334030  0.108970  0.818070  1.0  -0.3787
  N  N274  1  0.441600  0.999300  0.151400  1.0  -0.3886
  N  N275  1  0.108270  0.332630  0.484730  1.0  -0.3773
  N  N276  1  0.774930  0.665970  0.818070  1.0  -0.3886
  N  N277  1  0.557700  0.558400  0.151400  1.0  -0.3881
  N  N278  1  0.224370  0.891730  0.484730  1.0  -0.3881
  N  N279  1  0.891030  0.225070  0.818070  1.0  -0.3881
  N  N280  1  0.452750  0.905500  0.996000  1.0  -0.2971
  N  N281  1  0.119420  0.238830  0.329330  1.0  -0.297
  N  N282  1  0.786080  0.572170  0.662670  1.0  -0.2971
  N  N283  1  0.094500  0.547250  0.996000  1.0  -0.2924
  N  N284  1  0.761170  0.880580  0.329330  1.0  -0.2924
  N  N285  1  0.427830  0.213920  0.662670  1.0  -0.2924
  N  N286  1  0.452750  0.547250  0.996000  1.0  -0.2953
  N  N287  1  0.119420  0.880580  0.329330  1.0  -0.2952
  N  N288  1  0.786080  0.213920  0.662670  1.0  -0.2953
  N  N289  1  0.905500  0.452750  0.004000  1.0  -0.2918
  N  N290  1  0.572170  0.786080  0.337330  1.0  -0.2915
  N  N291  1  0.238830  0.119420  0.670670  1.0  -0.2916
  N  N292  1  0.547250  0.094500  0.004000  1.0  -0.2961
  N  N293  1  0.213920  0.427830  0.337330  1.0  -0.2962
  N  N294  1  0.880580  0.761170  0.670670  1.0  -0.2955
  N  N295  1  0.547250  0.452750  0.004000  1.0  -0.2954
  N  N296  1  0.213920  0.786080  0.337330  1.0  -0.2943
  N  N297  1  0.880580  0.119420  0.670670  1.0  -0.2942
  N  N298  1  0.302700  0.697300  0.997000  1.0  -0.4666
  N  N299  1  0.969370  0.030630  0.330330  1.0  -0.465
  N  N300  1  0.636030  0.363970  0.663670  1.0  -0.4655
  N  N301  1  0.302700  0.605400  0.997000  1.0  -0.4671
  N  N302  1  0.969370  0.938730  0.330330  1.0  -0.4667
  N  N303  1  0.636030  0.272070  0.663670  1.0  -0.4667
  N  N304  1  0.394600  0.697300  0.997000  1.0  -0.4669
  N  N305  1  0.061270  0.030630  0.330330  1.0  -0.4678
  N  N306  1  0.727930  0.363970  0.663670  1.0  -0.4678
  N  N307  1  0.697300  0.302700  0.003000  1.0  -0.4699
  N  N308  1  0.363970  0.636030  0.336330  1.0  -0.4691
  N  N309  1  0.030630  0.969370  0.669670  1.0  -0.469
  N  N310  1  0.605400  0.302700  0.003000  1.0  -0.4709
  N  N311  1  0.272070  0.636030  0.336330  1.0  -0.472
  N  N312  1  0.938730  0.969370  0.669670  1.0  -0.472
  N  N313  1  0.697300  0.394600  0.003000  1.0  -0.4726
  N  N314  1  0.363970  0.727930  0.336330  1.0  -0.4726
  N  N315  1  0.030630  0.061270  0.669670  1.0  -0.4721
