# generated using pymatgen
data_CoCu4B2H50C51(N9O8)2
_symmetry_space_group_name_H-M   'P 1'
_cell_length_a   26.60400000
_cell_length_b   18.11300000
_cell_length_c   18.92500000
_cell_angle_alpha   90.00000000
_cell_angle_beta   118.24000000
_cell_angle_gamma   90.00000000
_symmetry_Int_Tables_number   1
_chemical_formula_structural   CoCu4B2H50C51(N9O8)2
_chemical_formula_sum   'Co4 Cu16 B8 H200 C204 N72 O64'
_cell_volume   8034.07677888
_cell_formula_units_Z   4
loop_
 _symmetry_equiv_pos_site_id
 _symmetry_equiv_pos_as_xyz
  1  'x, y, z'
loop_
 _atom_site_type_symbol
 _atom_site_label
 _atom_site_symmetry_multiplicity
 _atom_site_fract_x
 _atom_site_fract_y
 _atom_site_fract_z
 _atom_site_occupancy
 _atom_site_charge
  Co  Co1  1  0.996480  0.080900  0.778930  1.0  0.8536
  Co  Co2  1  0.496480  0.580900  0.778930  1.0  0.8536
  Co  Co3  1  0.003520  0.080900  0.221070  1.0  0.8537
  Co  Co4  1  0.503520  0.580900  0.221070  1.0  0.8537
  Cu  Cu5  1  0.196950  0.850020  0.975820  1.0  0.8107
  Cu  Cu6  1  0.305830  0.815470  0.033450  1.0  0.8996
  Cu  Cu7  1  0.797170  0.862620  0.538500  1.0  0.882
  Cu  Cu8  1  0.691680  0.816900  0.449800  1.0  0.8997
  Cu  Cu9  1  0.696950  0.350020  0.975820  1.0  0.8107
  Cu  Cu10  1  0.805830  0.315470  0.033450  1.0  0.9
  Cu  Cu11  1  0.297170  0.362620  0.538500  1.0  0.882
  Cu  Cu12  1  0.191680  0.316900  0.449800  1.0  0.8997
  Cu  Cu13  1  0.803050  0.850020  0.024180  1.0  0.8094
  Cu  Cu14  1  0.694170  0.815470  0.966550  1.0  0.8965
  Cu  Cu15  1  0.202830  0.862620  0.461500  1.0  0.8822
  Cu  Cu16  1  0.308320  0.816900  0.550200  1.0  0.8992
  Cu  Cu17  1  0.303050  0.350020  0.024180  1.0  0.8093
  Cu  Cu18  1  0.194170  0.315470  0.966550  1.0  0.8969
  Cu  Cu19  1  0.702830  0.362620  0.461500  1.0  0.8822
  Cu  Cu20  1  0.808320  0.316900  0.550200  1.0  0.8992
  B  B21  1  0.027600  0.951300  0.689300  1.0  0.4994
  B  B22  1  0.961300  0.213000  0.857300  1.0  0.455
  B  B23  1  0.527600  0.451300  0.689300  1.0  0.4994
  B  B24  1  0.461300  0.713000  0.857300  1.0  0.455
  B  B25  1  0.972400  0.951300  0.310700  1.0  0.4999
  B  B26  1  0.038700  0.213000  0.142700  1.0  0.4549
  B  B27  1  0.472400  0.451300  0.310700  1.0  0.4999
  B  B28  1  0.538700  0.713000  0.142700  1.0  0.4549
  H  H29  1  0.038800  0.912600  0.661700  1.0  0.1041
  H  H30  1  0.099800  0.991100  0.952100  1.0  0.07
  H  H31  1  0.111000  0.848800  0.806300  1.0  0.1097
  H  H32  1  0.861600  0.000000  0.671600  1.0  0.0906
  H  H33  1  0.931100  0.863100  0.586500  1.0  0.0902
  H  H34  1  0.038000  0.195400  0.675000  1.0  0.0905
  H  H35  1  0.063400  0.020400  0.578700  1.0  0.102
  H  H36  1  0.949100  0.254000  0.881100  1.0  0.1169
  H  H37  1  0.899400  0.163300  0.597700  1.0  0.0907
  H  H38  1  0.887300  0.317500  0.735600  1.0  0.1045
  H  H39  1  0.129900  0.166700  0.877000  1.0  0.0667
  H  H40  1  0.058300  0.314200  0.948200  1.0  0.0996
  H  H41  1  0.950200  0.971100  0.879400  1.0  0.1132
  H  H42  1  0.910700  0.153600  0.956200  1.0  0.1106
  H  H43  1  0.332100  0.011600  0.186800  1.0  0.094
  H  H44  1  0.211700  0.023600  0.125700  1.0  0.1028
  H  H45  1  0.260700  0.030500  0.217400  1.0  0.125
  H  H46  1  0.215300  0.077100  0.999000  1.0  0.1016
  H  H47  1  0.258400  0.039500  0.972900  1.0  0.1134
  H  H48  1  0.254200  0.127500  0.974900  1.0  0.1111
  H  H49  1  0.363500  0.043100  0.060100  1.0  0.11
  H  H50  1  0.391300  0.078500  0.148000  1.0  0.0962
  H  H51  1  0.365600  0.130900  0.070800  1.0  0.1069
  H  H52  1  0.824000  0.646500  0.855500  1.0  0.1237
  H  H53  1  0.848200  0.730100  0.867400  1.0  0.1166
  H  H54  1  0.379000  0.190300  0.205600  1.0  0.0961
  H  H55  1  0.363100  0.121700  0.244500  1.0  0.096
  H  H56  1  0.337900  0.201800  0.244800  1.0  0.0913
  H  H57  1  0.251000  0.148400  0.203900  1.0  0.0712
  H  H58  1  0.210600  0.141100  0.108800  1.0  0.1018
  H  H59  1  0.731900  0.033100  0.679600  1.0  0.107
  H  H60  1  0.770000  0.053700  0.636900  1.0  0.0826
  H  H61  1  0.597700  0.011300  0.490800  1.0  0.0876
  H  H62  1  0.619700  0.047100  0.577800  1.0  0.0893
  H  H63  1  0.629300  0.961000  0.569200  1.0  0.107
  H  H64  1  0.763000  0.072200  0.519400  1.0  0.1009
  H  H65  1  0.736100  0.144200  0.465500  1.0  0.0958
  H  H66  1  0.718400  0.063900  0.426200  1.0  0.1144
  H  H67  1  0.622400  0.148300  0.402000  1.0  0.0929
  H  H68  1  0.594000  0.094000  0.439600  1.0  0.0831
  H  H69  1  0.620700  0.061300  0.386200  1.0  0.1019
  H  H70  1  0.811800  0.645200  0.726300  1.0  0.1032
  H  H71  1  0.837900  0.727000  0.739100  1.0  0.1163
  H  H72  1  0.687600  0.673100  0.697500  1.0  0.0924
  H  H73  1  0.717600  0.625400  0.656700  1.0  0.0928
  H  H74  1  0.670500  0.685800  0.605100  1.0  0.0947
  H  H75  1  0.645400  0.170100  0.539500  1.0  0.0911
  H  H76  1  0.751700  0.162600  0.660000  1.0  0.0744
  H  H77  1  0.693200  0.138400  0.658200  1.0  0.0945
  H  H78  1  0.236900  0.985600  0.683300  1.0  0.1208
  H  H79  1  0.538800  0.412600  0.661700  1.0  0.1041
  H  H80  1  0.599800  0.491100  0.952100  1.0  0.07
  H  H81  1  0.611000  0.348800  0.806300  1.0  0.1097
  H  H82  1  0.361600  0.500000  0.671600  1.0  0.0906
  H  H83  1  0.431100  0.363100  0.586500  1.0  0.0902
  H  H84  1  0.538000  0.695400  0.675000  1.0  0.0905
  H  H85  1  0.563400  0.520400  0.578700  1.0  0.102
  H  H86  1  0.449100  0.754000  0.881100  1.0  0.1169
  H  H87  1  0.399400  0.663300  0.597700  1.0  0.0907
  H  H88  1  0.387300  0.817500  0.735600  1.0  0.1045
  H  H89  1  0.629900  0.666667  0.877000  1.0  0.0705
  H  H90  1  0.558300  0.814200  0.948200  1.0  0.0996
  H  H91  1  0.450200  0.471100  0.879400  1.0  0.1132
  H  H92  1  0.410700  0.653600  0.956200  1.0  0.1106
  H  H93  1  0.832100  0.511600  0.186800  1.0  0.094
  H  H94  1  0.711700  0.523600  0.125700  1.0  0.1028
  H  H95  1  0.760700  0.530500  0.217400  1.0  0.125
  H  H96  1  0.715300  0.577100  0.999000  1.0  0.1016
  H  H97  1  0.758400  0.539500  0.972900  1.0  0.1134
  H  H98  1  0.754200  0.627500  0.974900  1.0  0.1111
  H  H99  1  0.863500  0.543100  0.060100  1.0  0.11
  H  H100  1  0.891300  0.578500  0.148000  1.0  0.0962
  H  H101  1  0.865600  0.630900  0.070800  1.0  0.1069
  H  H102  1  0.324000  0.146500  0.855500  1.0  0.1237
  H  H103  1  0.348200  0.230100  0.867400  1.0  0.1166
  H  H104  1  0.879000  0.690300  0.205600  1.0  0.0961
  H  H105  1  0.863100  0.621700  0.244500  1.0  0.096
  H  H106  1  0.837900  0.701800  0.244800  1.0  0.0913
  H  H107  1  0.751000  0.648400  0.203900  1.0  0.0712
  H  H108  1  0.710600  0.641100  0.108800  1.0  0.1018
  H  H109  1  0.231900  0.533100  0.679600  1.0  0.107
  H  H110  1  0.270000  0.553700  0.636900  1.0  0.0826
  H  H111  1  0.097700  0.511300  0.490800  1.0  0.0876
  H  H112  1  0.119700  0.547100  0.577800  1.0  0.0893
  H  H113  1  0.129300  0.461000  0.569200  1.0  0.107
  H  H114  1  0.263000  0.572200  0.519400  1.0  0.1009
  H  H115  1  0.236100  0.644200  0.465500  1.0  0.0958
  H  H116  1  0.218400  0.563900  0.426200  1.0  0.1144
  H  H117  1  0.122400  0.648300  0.402000  1.0  0.0929
  H  H118  1  0.094000  0.594000  0.439600  1.0  0.0831
  H  H119  1  0.120700  0.561300  0.386200  1.0  0.1019
  H  H120  1  0.311800  0.145200  0.726300  1.0  0.1032
  H  H121  1  0.337900  0.227000  0.739100  1.0  0.1163
  H  H122  1  0.187600  0.173100  0.697500  1.0  0.0924
  H  H123  1  0.217600  0.125400  0.656700  1.0  0.0928
  H  H124  1  0.170500  0.185800  0.605100  1.0  0.0947
  H  H125  1  0.145400  0.670100  0.539500  1.0  0.0911
  H  H126  1  0.251700  0.662600  0.660000  1.0  0.0744
  H  H127  1  0.193200  0.638400  0.658200  1.0  0.0945
  H  H128  1  0.736900  0.485600  0.683300  1.0  0.1208
  H  H129  1  0.961200  0.912600  0.338300  1.0  0.1046
  H  H130  1  0.900200  0.991100  0.047900  1.0  0.0696
  H  H131  1  0.889000  0.848800  0.193700  1.0  0.1101
  H  H132  1  0.138400  0.000000  0.328400  1.0  0.0904
  H  H133  1  0.068900  0.863100  0.413500  1.0  0.0907
  H  H134  1  0.962000  0.195400  0.325000  1.0  0.0906
  H  H135  1  0.936600  0.020400  0.421300  1.0  0.103
  H  H136  1  0.050900  0.254000  0.118900  1.0  0.1179
  H  H137  1  0.100600  0.163300  0.402300  1.0  0.0909
  H  H138  1  0.112700  0.317500  0.264400  1.0  0.1049
  H  H139  1  0.870100  0.166700  0.123000  1.0  0.0656
  H  H140  1  0.941700  0.314200  0.051800  1.0  0.1
  H  H141  1  0.049800  0.971100  0.120600  1.0  0.114
  H  H142  1  0.089300  0.153600  0.043800  1.0  0.1105
  H  H143  1  0.667900  0.011600  0.813200  1.0  0.0936
  H  H144  1  0.788300  0.023600  0.874300  1.0  0.101
  H  H145  1  0.739300  0.030500  0.782600  1.0  0.1229
  H  H146  1  0.784700  0.077100  0.001000  1.0  0.104
  H  H147  1  0.741600  0.039500  0.027100  1.0  0.1147
  H  H148  1  0.745800  0.127500  0.025100  1.0  0.1091
  H  H149  1  0.636500  0.043100  0.939900  1.0  0.1114
  H  H150  1  0.608700  0.078500  0.852000  1.0  0.0978
  H  H151  1  0.634400  0.130900  0.929200  1.0  0.106
  H  H152  1  0.176000  0.646500  0.144500  1.0  0.1233
  H  H153  1  0.151800  0.730100  0.132600  1.0  0.116
  H  H154  1  0.621000  0.190300  0.794400  1.0  0.0952
  H  H155  1  0.636900  0.121700  0.755500  1.0  0.0972
  H  H156  1  0.662100  0.201800  0.755200  1.0  0.0935
  H  H157  1  0.749000  0.148400  0.796100  1.0  0.072
  H  H158  1  0.789400  0.141100  0.891200  1.0  0.1015
  H  H159  1  0.268100  0.033100  0.320400  1.0  0.1077
  H  H160  1  0.230000  0.053700  0.363100  1.0  0.0775
  H  H161  1  0.402300  0.011300  0.509200  1.0  0.0878
  H  H162  1  0.380300  0.047100  0.422200  1.0  0.0889
  H  H163  1  0.370700  0.961000  0.430800  1.0  0.1073
  H  H164  1  0.237000  0.072200  0.480600  1.0  0.1007
  H  H165  1  0.263900  0.144200  0.534500  1.0  0.0953
  H  H166  1  0.281600  0.063900  0.573800  1.0  0.1156
  H  H167  1  0.377600  0.148300  0.598000  1.0  0.0908
  H  H168  1  0.406000  0.094000  0.560400  1.0  0.0846
  H  H169  1  0.379300  0.061300  0.613800  1.0  0.1021
  H  H170  1  0.188200  0.645200  0.273700  1.0  0.1035
  H  H171  1  0.162100  0.727000  0.260900  1.0  0.114
  H  H172  1  0.312400  0.673100  0.302500  1.0  0.0914
  H  H173  1  0.282400  0.625400  0.343300  1.0  0.0962
  H  H174  1  0.329500  0.685800  0.394900  1.0  0.096
  H  H175  1  0.354600  0.170100  0.460500  1.0  0.0945
  H  H176  1  0.248300  0.162600  0.340000  1.0  0.0742
  H  H177  1  0.306800  0.138400  0.341800  1.0  0.0918
  H  H178  1  0.763100  0.985600  0.316700  1.0  0.1207
  H  H179  1  0.461200  0.412600  0.338300  1.0  0.1046
  H  H180  1  0.400200  0.491100  0.047900  1.0  0.0696
  H  H181  1  0.389000  0.348800  0.193700  1.0  0.1101
  H  H182  1  0.638400  0.500000  0.328400  1.0  0.0904
  H  H183  1  0.568900  0.363100  0.413500  1.0  0.0907
  H  H184  1  0.462000  0.695400  0.325000  1.0  0.0906
  H  H185  1  0.436600  0.520400  0.421300  1.0  0.103
  H  H186  1  0.550900  0.754000  0.118900  1.0  0.1179
  H  H187  1  0.600600  0.663300  0.402300  1.0  0.0909
  H  H188  1  0.612700  0.817500  0.264400  1.0  0.1049
  H  H189  1  0.370100  0.666667  0.123000  1.0  0.0694
  H  H190  1  0.441700  0.814200  0.051800  1.0  0.1
  H  H191  1  0.549800  0.471100  0.120600  1.0  0.114
  H  H192  1  0.589300  0.653600  0.043800  1.0  0.1105
  H  H193  1  0.167900  0.511600  0.813200  1.0  0.0936
  H  H194  1  0.288300  0.523600  0.874300  1.0  0.101
  H  H195  1  0.239300  0.530500  0.782600  1.0  0.1229
  H  H196  1  0.284700  0.577100  0.001000  1.0  0.104
  H  H197  1  0.241600  0.539500  0.027100  1.0  0.1147
  H  H198  1  0.245800  0.627500  0.025100  1.0  0.1091
  H  H199  1  0.136500  0.543100  0.939900  1.0  0.1114
  H  H200  1  0.108700  0.578500  0.852000  1.0  0.0978
  H  H201  1  0.134400  0.630900  0.929200  1.0  0.106
  H  H202  1  0.676000  0.146500  0.144500  1.0  0.1233
  H  H203  1  0.651800  0.230100  0.132600  1.0  0.116
  H  H204  1  0.121000  0.690300  0.794400  1.0  0.0952
  H  H205  1  0.136900  0.621700  0.755500  1.0  0.0972
  H  H206  1  0.162100  0.701800  0.755200  1.0  0.0935
  H  H207  1  0.249000  0.648400  0.796100  1.0  0.072
  H  H208  1  0.289400  0.641100  0.891200  1.0  0.1015
  H  H209  1  0.768100  0.533100  0.320400  1.0  0.1077
  H  H210  1  0.730000  0.553700  0.363100  1.0  0.0775
  H  H211  1  0.902300  0.511300  0.509200  1.0  0.0878
  H  H212  1  0.880300  0.547100  0.422200  1.0  0.0889
  H  H213  1  0.870700  0.461000  0.430800  1.0  0.1073
  H  H214  1  0.737000  0.572200  0.480600  1.0  0.1007
  H  H215  1  0.763900  0.644200  0.534500  1.0  0.0953
  H  H216  1  0.781600  0.563900  0.573800  1.0  0.1156
  H  H217  1  0.877600  0.648300  0.598000  1.0  0.0908
  H  H218  1  0.906000  0.594000  0.560400  1.0  0.0846
  H  H219  1  0.879300  0.561300  0.613800  1.0  0.1021
  H  H220  1  0.688200  0.145200  0.273700  1.0  0.1035
  H  H221  1  0.662100  0.227000  0.260900  1.0  0.114
  H  H222  1  0.812400  0.173100  0.302500  1.0  0.0914
  H  H223  1  0.782400  0.125400  0.343300  1.0  0.0962
  H  H224  1  0.829500  0.185800  0.394900  1.0  0.096
  H  H225  1  0.854600  0.670100  0.460500  1.0  0.0945
  H  H226  1  0.748300  0.662600  0.340000  1.0  0.0742
  H  H227  1  0.806800  0.638400  0.341800  1.0  0.0918
  H  H228  1  0.263100  0.485600  0.316700  1.0  0.1207
  C  C229  1  0.090900  0.965200  0.903900  1.0  0.284
  C  C230  1  0.098400  0.888400  0.826800  1.0  0.1183
  C  C231  1  0.889400  0.973700  0.663700  1.0  0.2369
  C  C232  1  0.925500  0.900700  0.617000  1.0  0.1497
  C  C233  1  0.042700  0.145200  0.664700  1.0  0.2496
  C  C234  1  0.056800  0.052300  0.613400  1.0  0.1686
  C  C235  1  0.905100  0.190400  0.643900  1.0  0.2526
  C  C236  1  0.897600  0.274000  0.717600  1.0  0.1179
  C  C237  1  0.101600  0.193700  0.883100  1.0  0.2762
  C  C238  1  0.064200  0.272500  0.922800  1.0  0.1335
  C  C239  1  0.946100  0.021900  0.888200  1.0  0.2439
  C  C240  1  0.924400  0.119900  0.930800  1.0  0.1117
  C  C241  1  0.265700  0.899300  0.898100  1.0  0.6488
  C  C242  1  0.263100  0.941600  0.827400  1.0  0.0693
  C  C243  1  0.216400  0.998000  0.791900  1.0  -0.0944
  C  C244  1  0.315700  0.978500  0.853300  1.0  -0.1125
  C  C245  1  0.253900  0.894100  0.755800  1.0  0.0353
  C  C246  1  0.271900  0.824600  0.767700  1.0  -0.0953
  C  C247  1  0.281900  0.948100  0.089800  1.0  0.6849
  C  C248  1  0.294900  0.018000  0.136900  1.0  -0.1716
  C  C249  1  0.249500  0.045200  0.161500  1.0  -0.1191
  C  C250  1  0.300500  0.081900  0.090300  1.0  0.1501
  C  C251  1  0.252600  0.081500  0.000900  1.0  -0.3657
  C  C252  1  0.361000  0.083800  0.092500  1.0  -0.3706
  C  C253  1  0.755300  0.765100  0.884500  1.0  0.6596
  C  C254  1  0.759100  0.725800  0.813600  1.0  -0.0728
  C  C255  1  0.817100  0.696600  0.831900  1.0  -0.2664
  C  C256  1  0.732700  0.778200  0.736100  1.0  0.025
  C  C257  1  0.751400  0.851400  0.749400  1.0  -0.1331
  C  C258  1  0.668500  0.787400  0.696900  1.0  -0.0865
  C  C259  1  0.282900  0.224200  0.087400  1.0  0.6138
  C  C260  1  0.300500  0.152400  0.138700  1.0  0.0725
  C  C261  1  0.348900  0.167800  0.214300  1.0  -0.3728
  C  C262  1  0.247500  0.125600  0.154200  1.0  -0.2061
  C  C263  1  0.706300  0.955300  0.526900  1.0  0.5638
  C  C264  1  0.683100  0.026700  0.550300  1.0  0.0422
  C  C265  1  0.731900  0.058700  0.633400  1.0  -0.1187
  C  C266  1  0.627900  0.010100  0.546700  1.0  -0.3612
  C  C267  1  0.678600  0.091200  0.495600  1.0  0.2239
  C  C268  1  0.728700  0.093000  0.474700  1.0  -0.3591
  C  C269  1  0.624700  0.099300  0.425300  1.0  -0.3664
  C  C270  1  0.742500  0.769700  0.608600  1.0  0.6843
  C  C271  1  0.745500  0.728500  0.681000  1.0  0.0513
  C  C272  1  0.808100  0.696300  0.742000  1.0  -0.3133
  C  C273  1  0.701900  0.673900  0.658300  1.0  -0.366
  C  C274  1  0.705400  0.228000  0.529400  1.0  0.685
  C  C275  1  0.684700  0.159100  0.548000  1.0  -0.1219
  C  C276  1  0.716800  0.132500  0.630900  1.0  -0.1547
  C  C277  1  0.259300  0.905300  0.626100  1.0  0.6453
  C  C278  1  0.265400  0.944500  0.700800  1.0  -0.1168
  C  C279  1  0.327500  0.979700  0.748900  1.0  -0.055
  C  C280  1  0.590900  0.465200  0.903900  1.0  0.284
  C  C281  1  0.598400  0.388400  0.826800  1.0  0.1183
  C  C282  1  0.389400  0.473700  0.663700  1.0  0.2369
  C  C283  1  0.425500  0.400700  0.617000  1.0  0.1497
  C  C284  1  0.542700  0.645200  0.664700  1.0  0.2496
  C  C285  1  0.556800  0.552300  0.613400  1.0  0.1686
  C  C286  1  0.405100  0.690400  0.643900  1.0  0.2526
  C  C287  1  0.397600  0.774000  0.717600  1.0  0.1179
  C  C288  1  0.601600  0.693700  0.883100  1.0  0.2873
  C  C289  1  0.564200  0.772500  0.922800  1.0  0.1335
  C  C290  1  0.446100  0.521900  0.888200  1.0  0.2439
  C  C291  1  0.424400  0.619900  0.930800  1.0  0.1117
  C  C292  1  0.765700  0.399300  0.898100  1.0  0.6488
  C  C293  1  0.763100  0.441600  0.827400  1.0  0.0693
  C  C294  1  0.716400  0.498000  0.791900  1.0  -0.0944
  C  C295  1  0.815700  0.478500  0.853300  1.0  -0.1125
  C  C296  1  0.753900  0.394100  0.755800  1.0  0.0353
  C  C297  1  0.771900  0.324600  0.767700  1.0  -0.0953
  C  C298  1  0.781900  0.448100  0.089800  1.0  0.6849
  C  C299  1  0.794900  0.518000  0.136900  1.0  -0.1716
  C  C300  1  0.749500  0.545200  0.161500  1.0  -0.1191
  C  C301  1  0.800500  0.581900  0.090300  1.0  0.1501
  C  C302  1  0.752600  0.581500  0.000900  1.0  -0.3657
  C  C303  1  0.861000  0.583800  0.092500  1.0  -0.3706
  C  C304  1  0.255300  0.265100  0.884500  1.0  0.6596
  C  C305  1  0.259100  0.225800  0.813600  1.0  -0.0729
  C  C306  1  0.317100  0.196600  0.831900  1.0  -0.2664
  C  C307  1  0.232700  0.278200  0.736100  1.0  0.025
  C  C308  1  0.251400  0.351400  0.749400  1.0  -0.1331
  C  C309  1  0.168500  0.287400  0.696900  1.0  -0.0865
  C  C310  1  0.782900  0.724200  0.087400  1.0  0.6138
  C  C311  1  0.800500  0.652400  0.138700  1.0  0.0725
  C  C312  1  0.848900  0.667800  0.214300  1.0  -0.3728
  C  C313  1  0.747500  0.625600  0.154200  1.0  -0.2061
  C  C314  1  0.206300  0.455300  0.526900  1.0  0.5638
  C  C315  1  0.183100  0.526700  0.550300  1.0  0.0422
  C  C316  1  0.231900  0.558700  0.633400  1.0  -0.1187
  C  C317  1  0.127900  0.510100  0.546700  1.0  -0.3612
  C  C318  1  0.178600  0.591200  0.495600  1.0  0.2239
  C  C319  1  0.228700  0.593000  0.474700  1.0  -0.3591
  C  C320  1  0.124700  0.599300  0.425300  1.0  -0.3664
  C  C321  1  0.242500  0.269700  0.608600  1.0  0.6843
  C  C322  1  0.245500  0.228500  0.681000  1.0  0.0513
  C  C323  1  0.308100  0.196300  0.742000  1.0  -0.3133
  C  C324  1  0.201900  0.173900  0.658300  1.0  -0.366
  C  C325  1  0.205400  0.728000  0.529400  1.0  0.685
  C  C326  1  0.184700  0.659100  0.548000  1.0  -0.1219
  C  C327  1  0.216800  0.632500  0.630900  1.0  -0.1547
  C  C328  1  0.759300  0.405300  0.626100  1.0  0.6453
  C  C329  1  0.765400  0.444500  0.700800  1.0  -0.1168
  C  C330  1  0.827500  0.479700  0.748900  1.0  -0.055
  C  C331  1  0.909100  0.965200  0.096100  1.0  0.2822
  C  C332  1  0.901600  0.888400  0.173200  1.0  0.1179
  C  C333  1  0.110600  0.973700  0.336300  1.0  0.2363
  C  C334  1  0.074500  0.900700  0.383000  1.0  0.1484
  C  C335  1  0.957300  0.145200  0.335300  1.0  0.2493
  C  C336  1  0.943200  0.052300  0.386600  1.0  0.1682
  C  C337  1  0.094900  0.190400  0.356100  1.0  0.253
  C  C338  1  0.102400  0.274000  0.282400  1.0  0.1175
  C  C339  1  0.898400  0.193700  0.116900  1.0  0.2767
  C  C340  1  0.935800  0.272500  0.077200  1.0  0.1341
  C  C341  1  0.053900  0.021900  0.111800  1.0  0.2438
  C  C342  1  0.075600  0.119900  0.069200  1.0  0.1109
  C  C343  1  0.734300  0.899300  0.101900  1.0  0.65
  C  C344  1  0.736900  0.941600  0.172600  1.0  0.0671
  C  C345  1  0.783600  0.998000  0.208100  1.0  -0.0946
  C  C346  1  0.684300  0.978500  0.146700  1.0  -0.1097
  C  C347  1  0.746100  0.894100  0.244200  1.0  0.0354
  C  C348  1  0.728100  0.824600  0.232300  1.0  -0.0948
  C  C349  1  0.718100  0.948100  0.910200  1.0  0.6844
  C  C350  1  0.705100  0.018000  0.863100  1.0  -0.1741
  C  C351  1  0.750500  0.045200  0.838500  1.0  -0.1208
  C  C352  1  0.699500  0.081900  0.909700  1.0  0.1506
  C  C353  1  0.747400  0.081500  0.999100  1.0  -0.366
  C  C354  1  0.639000  0.083800  0.907500  1.0  -0.3688
  C  C355  1  0.244700  0.765100  0.115500  1.0  0.6594
  C  C356  1  0.240900  0.725800  0.186400  1.0  -0.073
  C  C357  1  0.182900  0.696600  0.168100  1.0  -0.2659
  C  C358  1  0.267300  0.778200  0.263900  1.0  0.0263
  C  C359  1  0.248600  0.851400  0.250600  1.0  -0.1329
  C  C360  1  0.331500  0.787400  0.303100  1.0  -0.0894
  C  C361  1  0.717100  0.224200  0.912600  1.0  0.6135
  C  C362  1  0.699500  0.152400  0.861300  1.0  0.0733
  C  C363  1  0.651100  0.167800  0.785700  1.0  -0.3738
  C  C364  1  0.752500  0.125600  0.845800  1.0  -0.204
  C  C365  1  0.293700  0.955300  0.473100  1.0  0.5641
  C  C366  1  0.316900  0.026700  0.449700  1.0  0.0423
  C  C367  1  0.268100  0.058700  0.366600  1.0  -0.1181
  C  C368  1  0.372100  0.010100  0.453300  1.0  -0.3625
  C  C369  1  0.321400  0.091200  0.504400  1.0  0.2249
  C  C370  1  0.271300  0.093000  0.525300  1.0  -0.3582
  C  C371  1  0.375300  0.099300  0.574700  1.0  -0.3669
  C  C372  1  0.257500  0.769700  0.391400  1.0  0.6824
  C  C373  1  0.254500  0.728500  0.319000  1.0  0.0527
  C  C374  1  0.191900  0.696300  0.258000  1.0  -0.3137
  C  C375  1  0.298100  0.673900  0.341700  1.0  -0.3647
  C  C376  1  0.294600  0.228000  0.470600  1.0  0.6848
  C  C377  1  0.315300  0.159100  0.452000  1.0  -0.1203
  C  C378  1  0.283200  0.132500  0.369100  1.0  -0.152
  C  C379  1  0.740700  0.905300  0.373900  1.0  0.6465
  C  C380  1  0.734600  0.944500  0.299200  1.0  -0.1154
  C  C381  1  0.672500  0.979700  0.251100  1.0  -0.0535
  C  C382  1  0.409100  0.465200  0.096100  1.0  0.2822
  C  C383  1  0.401600  0.388400  0.173200  1.0  0.1179
  C  C384  1  0.610600  0.473700  0.336300  1.0  0.2363
  C  C385  1  0.574500  0.400700  0.383000  1.0  0.1484
  C  C386  1  0.457300  0.645200  0.335300  1.0  0.2493
  C  C387  1  0.443200  0.552300  0.386600  1.0  0.1682
  C  C388  1  0.594900  0.690400  0.356100  1.0  0.253
  C  C389  1  0.602400  0.774000  0.282400  1.0  0.1175
  C  C390  1  0.398400  0.693700  0.116900  1.0  0.2877
  C  C391  1  0.435800  0.772500  0.077200  1.0  0.1341
  C  C392  1  0.553900  0.521900  0.111800  1.0  0.2438
  C  C393  1  0.575600  0.619900  0.069200  1.0  0.1109
  C  C394  1  0.234300  0.399300  0.101900  1.0  0.65
  C  C395  1  0.236900  0.441600  0.172600  1.0  0.0671
  C  C396  1  0.283600  0.498000  0.208100  1.0  -0.0946
  C  C397  1  0.184300  0.478500  0.146700  1.0  -0.1097
  C  C398  1  0.246100  0.394100  0.244200  1.0  0.0354
  C  C399  1  0.228100  0.324600  0.232300  1.0  -0.0948
  C  C400  1  0.218100  0.448100  0.910200  1.0  0.6844
  C  C401  1  0.205100  0.518000  0.863100  1.0  -0.1741
  C  C402  1  0.250500  0.545200  0.838500  1.0  -0.1208
  C  C403  1  0.199500  0.581900  0.909700  1.0  0.1506
  C  C404  1  0.247400  0.581500  0.999100  1.0  -0.366
  C  C405  1  0.139000  0.583800  0.907500  1.0  -0.3688
  C  C406  1  0.744700  0.265100  0.115500  1.0  0.6594
  C  C407  1  0.740900  0.225800  0.186400  1.0  -0.0732
  C  C408  1  0.682900  0.196600  0.168100  1.0  -0.2659
  C  C409  1  0.767300  0.278200  0.263900  1.0  0.0263
  C  C410  1  0.748600  0.351400  0.250600  1.0  -0.1329
  C  C411  1  0.831500  0.287400  0.303100  1.0  -0.0894
  C  C412  1  0.217100  0.724200  0.912600  1.0  0.6135
  C  C413  1  0.199500  0.652400  0.861300  1.0  0.0733
  C  C414  1  0.151100  0.667800  0.785700  1.0  -0.3738
  C  C415  1  0.252500  0.625600  0.845800  1.0  -0.204
  C  C416  1  0.793700  0.455300  0.473100  1.0  0.5641
  C  C417  1  0.816900  0.526700  0.449700  1.0  0.0423
  C  C418  1  0.768100  0.558700  0.366600  1.0  -0.1181
  C  C419  1  0.872100  0.510100  0.453300  1.0  -0.3625
  C  C420  1  0.821400  0.591200  0.504400  1.0  0.2249
  C  C421  1  0.771300  0.593000  0.525300  1.0  -0.3582
  C  C422  1  0.875300  0.599300  0.574700  1.0  -0.3669
  C  C423  1  0.757500  0.269700  0.391400  1.0  0.6824
  C  C424  1  0.754500  0.228500  0.319000  1.0  0.0527
  C  C425  1  0.691900  0.196300  0.258000  1.0  -0.3137
  C  C426  1  0.798100  0.173900  0.341700  1.0  -0.3647
  C  C427  1  0.794600  0.728000  0.470600  1.0  0.6848
  C  C428  1  0.815300  0.659100  0.452000  1.0  -0.1203
  C  C429  1  0.783200  0.632500  0.369100  1.0  -0.152
  C  C430  1  0.240700  0.405300  0.373900  1.0  0.6465
  C  C431  1  0.234600  0.444500  0.299200  1.0  -0.1154
  C  C432  1  0.172500  0.479700  0.251100  1.0  -0.0535
  N  N433  1  0.055400  0.993100  0.834900  1.0  -0.33
  N  N434  1  0.061300  0.942800  0.781900  1.0  -0.056
  N  N435  1  0.114400  0.900500  0.906400  1.0  -0.4211
  N  N436  1  0.942200  0.994200  0.698800  1.0  -0.3157
  N  N437  1  0.966900  0.946500  0.666100  1.0  0.0027
  N  N438  1  0.874800  0.913500  0.615300  1.0  -0.4778
  N  N439  1  0.029900  0.088300  0.700500  1.0  -0.2869
  N  N440  1  0.040400  0.028500  0.670100  1.0  -0.0513
  N  N441  1  0.062000  0.125600  0.614600  1.0  -0.3984
  N  N442  1  0.936200  0.165400  0.718700  1.0  -0.3177
  N  N443  1  0.930000  0.218500  0.765700  1.0  -0.0067
  N  N444  1  0.882200  0.258100  0.640500  1.0  -0.4485
  N  N445  1  0.050700  0.167800  0.856500  1.0  -0.2898
  N  N446  1  0.025400  0.218500  0.885200  1.0  -0.0512
  N  N447  1  0.113300  0.258200  0.918800  1.0  -0.4166
  N  N448  1  0.961700  0.077200  0.856300  1.0  -0.2683
  N  N449  1  0.948600  0.138700  0.883000  1.0  -0.0111
  N  N450  1  0.923500  0.047200  0.935300  1.0  -0.3051
  N  N451  1  0.555400  0.493100  0.834900  1.0  -0.3299
  N  N452  1  0.561300  0.442800  0.781900  1.0  -0.056
  N  N453  1  0.614400  0.400500  0.906400  1.0  -0.4211
  N  N454  1  0.442200  0.494200  0.698800  1.0  -0.3157
  N  N455  1  0.466900  0.446500  0.666100  1.0  0.0027
  N  N456  1  0.374800  0.413500  0.615300  1.0  -0.4778
  N  N457  1  0.529900  0.588300  0.700500  1.0  -0.2869
  N  N458  1  0.540400  0.528500  0.670100  1.0  -0.0513
  N  N459  1  0.562000  0.625600  0.614600  1.0  -0.3984
  N  N460  1  0.436200  0.665400  0.718700  1.0  -0.3177
  N  N461  1  0.430000  0.718500  0.765700  1.0  -0.0067
  N  N462  1  0.382200  0.758100  0.640500  1.0  -0.4485
  N  N463  1  0.550700  0.667800  0.856500  1.0  -0.2898
  N  N464  1  0.525400  0.718500  0.885200  1.0  -0.0512
  N  N465  1  0.613300  0.758200  0.918800  1.0  -0.4166
  N  N466  1  0.461700  0.577200  0.856300  1.0  -0.2683
  N  N467  1  0.448600  0.638700  0.883000  1.0  -0.0111
  N  N468  1  0.423500  0.547200  0.935300  1.0  -0.3051
  N  N469  1  0.944600  0.993100  0.165100  1.0  -0.3293
  N  N470  1  0.938700  0.942800  0.218100  1.0  -0.057
  N  N471  1  0.885600  0.900500  0.093600  1.0  -0.4214
  N  N472  1  0.057800  0.994200  0.301200  1.0  -0.3164
  N  N473  1  0.033100  0.946500  0.333900  1.0  0.0031
  N  N474  1  0.125200  0.913500  0.384700  1.0  -0.4774
  N  N475  1  0.970100  0.088300  0.299500  1.0  -0.286
  N  N476  1  0.959600  0.028500  0.329900  1.0  -0.0506
  N  N477  1  0.938000  0.125600  0.385400  1.0  -0.3965
  N  N478  1  0.063800  0.165400  0.281300  1.0  -0.3173
  N  N479  1  0.070000  0.218500  0.234300  1.0  -0.0076
  N  N480  1  0.117800  0.258100  0.359500  1.0  -0.4481
  N  N481  1  0.949300  0.167800  0.143500  1.0  -0.2904
  N  N482  1  0.974600  0.218500  0.114800  1.0  -0.0508
  N  N483  1  0.886700  0.258200  0.081200  1.0  -0.4153
  N  N484  1  0.038300  0.077200  0.143700  1.0  -0.2669
  N  N485  1  0.051400  0.138700  0.117000  1.0  -0.0104
  N  N486  1  0.076500  0.047200  0.064700  1.0  -0.3051
  N  N487  1  0.444600  0.493100  0.165100  1.0  -0.3293
  N  N488  1  0.438700  0.442800  0.218100  1.0  -0.057
  N  N489  1  0.385600  0.400500  0.093600  1.0  -0.4214
  N  N490  1  0.557800  0.494200  0.301200  1.0  -0.3164
  N  N491  1  0.533100  0.446500  0.333900  1.0  0.0031
  N  N492  1  0.625200  0.413500  0.384700  1.0  -0.4774
  N  N493  1  0.470100  0.588300  0.299500  1.0  -0.286
  N  N494  1  0.459600  0.528500  0.329900  1.0  -0.0506
  N  N495  1  0.438000  0.625600  0.385400  1.0  -0.3965
  N  N496  1  0.563800  0.665400  0.281300  1.0  -0.3173
  N  N497  1  0.570000  0.718500  0.234300  1.0  -0.0076
  N  N498  1  0.617800  0.758100  0.359500  1.0  -0.4481
  N  N499  1  0.449300  0.667800  0.143500  1.0  -0.2904
  N  N500  1  0.474600  0.718500  0.114800  1.0  -0.0508
  N  N501  1  0.386700  0.758200  0.081200  1.0  -0.4153
  N  N502  1  0.538300  0.577200  0.143700  1.0  -0.2669
  N  N503  1  0.551400  0.638700  0.117000  1.0  -0.0104
  N  N504  1  0.576500  0.547200  0.064700  1.0  -0.3051
  O  O505  1  0.217100  0.892300  0.893800  1.0  -0.5774
  O  O506  1  0.309500  0.877000  0.951200  1.0  -0.5417
  O  O507  1  0.230800  0.936000  0.045900  1.0  -0.5645
  O  O508  1  0.320500  0.904100  0.099400  1.0  -0.585
  O  O509  1  0.801600  0.797600  0.932700  1.0  -0.582
  O  O510  1  0.710500  0.763400  0.889200  1.0  -0.5658
  O  O511  1  0.322800  0.257500  0.084900  1.0  -0.5584
  O  O512  1  0.230200  0.238300  0.046600  1.0  -0.5948
  O  O513  1  0.760100  0.940800  0.561600  1.0  -0.5994
  O  O514  1  0.668200  0.910900  0.476100  1.0  -0.5844
  O  O515  1  0.789000  0.799900  0.619200  1.0  -0.59
  O  O516  1  0.696300  0.773700  0.545500  1.0  -0.5711
  O  O517  1  0.671100  0.276000  0.487800  1.0  -0.5658
  O  O518  1  0.759300  0.234300  0.558000  1.0  -0.5923
  O  O519  1  0.215000  0.912300  0.562400  1.0  -0.5585
  O  O520  1  0.303800  0.868300  0.637500  1.0  -0.589
  O  O521  1  0.717100  0.392300  0.893800  1.0  -0.5774
  O  O522  1  0.809500  0.377000  0.951200  1.0  -0.5417
  O  O523  1  0.730800  0.436000  0.045900  1.0  -0.5645
  O  O524  1  0.820500  0.404100  0.099400  1.0  -0.585
  O  O525  1  0.301600  0.297600  0.932700  1.0  -0.582
  O  O526  1  0.210500  0.263400  0.889200  1.0  -0.5658
  O  O527  1  0.822800  0.757500  0.084900  1.0  -0.5584
  O  O528  1  0.730200  0.738300  0.046600  1.0  -0.5949
  O  O529  1  0.260100  0.440800  0.561600  1.0  -0.5994
  O  O530  1  0.168200  0.410900  0.476100  1.0  -0.5844
  O  O531  1  0.289000  0.299900  0.619200  1.0  -0.59
  O  O532  1  0.196300  0.273700  0.545500  1.0  -0.5711
  O  O533  1  0.171100  0.776000  0.487800  1.0  -0.5658
  O  O534  1  0.259300  0.734300  0.558000  1.0  -0.5923
  O  O535  1  0.715000  0.412300  0.562400  1.0  -0.5585
  O  O536  1  0.803800  0.368300  0.637500  1.0  -0.589
  O  O537  1  0.782900  0.892300  0.106200  1.0  -0.578
  O  O538  1  0.690500  0.877000  0.048800  1.0  -0.5422
  O  O539  1  0.769200  0.936000  0.954100  1.0  -0.5649
  O  O540  1  0.679500  0.904100  0.900600  1.0  -0.5863
  O  O541  1  0.198400  0.797600  0.067300  1.0  -0.5808
  O  O542  1  0.289500  0.763400  0.110800  1.0  -0.5664
  O  O543  1  0.677200  0.257500  0.915100  1.0  -0.5591
  O  O544  1  0.769800  0.238300  0.953400  1.0  -0.5926
  O  O545  1  0.239900  0.940800  0.438400  1.0  -0.6009
  O  O546  1  0.331800  0.910900  0.523900  1.0  -0.5847
  O  O547  1  0.211000  0.799900  0.380800  1.0  -0.5903
  O  O548  1  0.303700  0.773700  0.454500  1.0  -0.5689
  O  O549  1  0.328900  0.276000  0.512200  1.0  -0.5649
  O  O550  1  0.240700  0.234300  0.442000  1.0  -0.5924
  O  O551  1  0.785000  0.912300  0.437600  1.0  -0.5601
  O  O552  1  0.696200  0.868300  0.362500  1.0  -0.5896
  O  O553  1  0.282900  0.392300  0.106200  1.0  -0.578
  O  O554  1  0.190500  0.377000  0.048800  1.0  -0.5422
  O  O555  1  0.269200  0.436000  0.954100  1.0  -0.5649
  O  O556  1  0.179500  0.404100  0.900600  1.0  -0.5863
  O  O557  1  0.698400  0.297600  0.067300  1.0  -0.5807
  O  O558  1  0.789500  0.263400  0.110800  1.0  -0.5664
  O  O559  1  0.177200  0.757500  0.915100  1.0  -0.5591
  O  O560  1  0.269800  0.738300  0.953400  1.0  -0.5927
  O  O561  1  0.739900  0.440800  0.438400  1.0  -0.6009
  O  O562  1  0.831800  0.410900  0.523900  1.0  -0.5847
  O  O563  1  0.711000  0.299900  0.380800  1.0  -0.5903
  O  O564  1  0.803700  0.273700  0.454500  1.0  -0.5689
  O  O565  1  0.828900  0.776000  0.512200  1.0  -0.5649
  O  O566  1  0.740700  0.734300  0.442000  1.0  -0.5924
  O  O567  1  0.285000  0.412300  0.437600  1.0  -0.5601
  O  O568  1  0.196200  0.368300  0.362500  1.0  -0.5896
