# generated using pymatgen
data_ZnH9C11N5O2
_symmetry_space_group_name_H-M   'P 1'
_cell_length_a   25.78900000
_cell_length_b   25.78900000
_cell_length_c   19.79700000
_cell_angle_alpha   90.00000000
_cell_angle_beta   90.00000000
_cell_angle_gamma   120.00000000
_symmetry_Int_Tables_number   1
_chemical_formula_structural   ZnH9C11N5O2
_chemical_formula_sum   'Zn24 H216 C264 N120 O48'
_cell_volume   11402.47212209
_cell_formula_units_Z   24
loop_
 _symmetry_equiv_pos_site_id
 _symmetry_equiv_pos_as_xyz
  1  'x, y, z'
loop_
 _atom_site_type_symbol
 _atom_site_label
 _atom_site_symmetry_multiplicity
 _atom_site_fract_x
 _atom_site_fract_y
 _atom_site_fract_z
 _atom_site_occupancy
 _atom_site_charge
  Zn  Zn1  1  0.431910  0.100320  0.597850  1.0  0.8109
  Zn  Zn2  1  0.899680  0.331590  0.597850  1.0  0.8114
  Zn  Zn3  1  0.668410  0.568090  0.597850  1.0  0.8098
  Zn  Zn4  1  0.568090  0.899680  0.097850  1.0  0.8113
  Zn  Zn5  1  0.100320  0.668410  0.097850  1.0  0.8099
  Zn  Zn6  1  0.331590  0.431910  0.097850  1.0  0.8119
  Zn  Zn7  1  0.100320  0.431910  0.402150  1.0  0.8113
  Zn  Zn8  1  0.331590  0.899680  0.402150  1.0  0.8112
  Zn  Zn9  1  0.568090  0.668410  0.402150  1.0  0.8099
  Zn  Zn10  1  0.899680  0.568090  0.902150  1.0  0.809
  Zn  Zn11  1  0.668410  0.100320  0.902150  1.0  0.8109
  Zn  Zn12  1  0.431910  0.331590  0.902150  1.0  0.8113
  Zn  Zn13  1  0.568090  0.899680  0.402150  1.0  0.8078
  Zn  Zn14  1  0.100320  0.668410  0.402150  1.0  0.8083
  Zn  Zn15  1  0.331590  0.431910  0.402150  1.0  0.8083
  Zn  Zn16  1  0.431910  0.100320  0.902150  1.0  0.8069
  Zn  Zn17  1  0.899680  0.331590  0.902150  1.0  0.8079
  Zn  Zn18  1  0.668410  0.568090  0.902150  1.0  0.8091
  Zn  Zn19  1  0.899680  0.568090  0.597850  1.0  0.8103
  Zn  Zn20  1  0.668410  0.100320  0.597850  1.0  0.8079
  Zn  Zn21  1  0.431910  0.331590  0.597850  1.0  0.8085
  Zn  Zn22  1  0.100320  0.431910  0.097850  1.0  0.8084
  Zn  Zn23  1  0.331590  0.899680  0.097850  1.0  0.8086
  Zn  Zn24  1  0.568090  0.668410  0.097850  1.0  0.8092
  H  H25  1  0.297500  0.075600  0.591000  1.0  0.1145
  H  H26  1  0.435800  0.120000  0.439000  1.0  0.1442
  H  H27  1  0.483100  0.184900  0.290000  1.0  0.1221
  H  H28  1  0.413700  0.141100  0.289600  1.0  0.1266
  H  H29  1  0.454900  0.127300  0.335200  1.0  0.128
  H  H30  1  0.549300  0.195000  0.527400  1.0  0.1034
  H  H31  1  0.324500  0.998000  0.688500  1.0  0.0987
  H  H32  1  0.924400  0.221900  0.591000  1.0  0.1158
  H  H33  1  0.880000  0.315800  0.439000  1.0  0.1432
  H  H34  1  0.815100  0.298200  0.290000  1.0  0.1185
  H  H35  1  0.858900  0.272600  0.289600  1.0  0.126
  H  H36  1  0.872700  0.327600  0.335200  1.0  0.1321
  H  H37  1  0.805000  0.354300  0.527400  1.0  0.1012
  H  H38  1  0.002000  0.326500  0.688500  1.0  0.097
  H  H39  1  0.778100  0.702500  0.591000  1.0  0.1165
  H  H40  1  0.684200  0.564200  0.439000  1.0  0.1887
  H  H41  1  0.645700  0.450700  0.527400  1.0  0.1021
  H  H42  1  0.673500  0.675500  0.688500  1.0  0.0999
  H  H43  1  0.702500  0.924400  0.091000  1.0  0.1328
  H  H44  1  0.564200  0.880000  0.939000  1.0  0.1444
  H  H45  1  0.516900  0.815100  0.790000  1.0  0.1196
  H  H46  1  0.586300  0.858900  0.789600  1.0  0.1264
  H  H47  1  0.545100  0.872700  0.835200  1.0  0.13
  H  H48  1  0.450700  0.805000  0.027400  1.0  0.1034
  H  H49  1  0.675500  0.002000  0.188500  1.0  0.0962
  H  H50  1  0.075600  0.778100  0.091000  1.0  0.1162
  H  H51  1  0.120000  0.684200  0.939000  1.0  0.144
  H  H52  1  0.184900  0.701800  0.790000  1.0  0.1198
  H  H53  1  0.141100  0.727400  0.789600  1.0  0.1259
  H  H54  1  0.127300  0.672400  0.835200  1.0  0.1306
  H  H55  1  0.195000  0.645700  0.027400  1.0  0.1014
  H  H56  1  0.998000  0.673500  0.188500  1.0  0.0952
  H  H57  1  0.221900  0.297500  0.091000  1.0  0.1393
  H  H58  1  0.315800  0.435800  0.939000  1.0  0.1435
  H  H59  1  0.298200  0.483100  0.790000  1.0  0.1223
  H  H60  1  0.272600  0.413700  0.789600  1.0  0.1274
  H  H61  1  0.327600  0.454900  0.835200  1.0  0.1254
  H  H62  1  0.354300  0.549300  0.027400  1.0  0.102
  H  H63  1  0.326500  0.324500  0.188500  1.0  0.0987
  H  H64  1  0.075600  0.297500  0.409000  1.0  0.1145
  H  H65  1  0.120000  0.435800  0.561000  1.0  0.1443
  H  H66  1  0.184900  0.483100  0.710000  1.0  0.1217
  H  H67  1  0.141100  0.413700  0.710400  1.0  0.1262
  H  H68  1  0.127300  0.454900  0.664800  1.0  0.1259
  H  H69  1  0.195000  0.549300  0.472600  1.0  0.1024
  H  H70  1  0.998000  0.324500  0.311500  1.0  0.0995
  H  H71  1  0.221900  0.924400  0.409000  1.0  0.1148
  H  H72  1  0.315800  0.880000  0.561000  1.0  0.1435
  H  H73  1  0.298200  0.815100  0.710000  1.0  0.1204
  H  H74  1  0.272600  0.858900  0.710400  1.0  0.1289
  H  H75  1  0.327600  0.872700  0.664800  1.0  0.1302
  H  H76  1  0.354300  0.805000  0.472600  1.0  0.104
  H  H77  1  0.326500  0.002000  0.311500  1.0  0.0978
  H  H78  1  0.702500  0.778100  0.409000  1.0  0.114
  H  H79  1  0.564200  0.684200  0.561000  1.0  0.1431
  H  H80  1  0.516900  0.701800  0.710000  1.0  0.1212
  H  H81  1  0.586300  0.727400  0.710400  1.0  0.1272
  H  H82  1  0.545100  0.672400  0.664800  1.0  0.1313
  H  H83  1  0.450700  0.645700  0.472600  1.0  0.1021
  H  H84  1  0.675500  0.673500  0.311500  1.0  0.0994
  H  H85  1  0.924400  0.702500  0.909000  1.0  0.1141
  H  H86  1  0.880000  0.564200  0.061000  1.0  0.1879
  H  H87  1  0.805000  0.450700  0.972600  1.0  0.1044
  H  H88  1  0.002000  0.675500  0.811500  1.0  0.0989
  H  H89  1  0.778100  0.075600  0.909000  1.0  0.1108
  H  H90  1  0.684200  0.120000  0.061000  1.0  0.144
  H  H91  1  0.701800  0.184900  0.210000  1.0  0.1189
  H  H92  1  0.727400  0.141100  0.210400  1.0  0.1283
  H  H93  1  0.672400  0.127300  0.164800  1.0  0.1304
  H  H94  1  0.645700  0.195000  0.972600  1.0  0.1035
  H  H95  1  0.673500  0.998000  0.811500  1.0  0.0972
  H  H96  1  0.297500  0.221900  0.909000  1.0  0.1163
  H  H97  1  0.435800  0.315800  0.061000  1.0  0.1447
  H  H98  1  0.483100  0.298200  0.210000  1.0  0.1208
  H  H99  1  0.413700  0.272600  0.210400  1.0  0.1279
  H  H100  1  0.454900  0.327600  0.164800  1.0  0.129
  H  H101  1  0.549300  0.354300  0.972600  1.0  0.1016
  H  H102  1  0.324500  0.326500  0.811500  1.0  0.0983
  H  H103  1  0.702500  0.924400  0.409000  1.0  0.1327
  H  H104  1  0.564200  0.880000  0.561000  1.0  0.1865
  H  H105  1  0.450700  0.805000  0.472600  1.0  0.1028
  H  H106  1  0.675500  0.002000  0.311500  1.0  0.0897
  H  H107  1  0.075600  0.778100  0.409000  1.0  0.1174
  H  H108  1  0.120000  0.684200  0.561000  1.0  0.1874
  H  H109  1  0.195000  0.645700  0.472600  1.0  0.1009
  H  H110  1  0.998000  0.673500  0.311500  1.0  0.0984
  H  H111  1  0.221900  0.297500  0.409000  1.0  0.138
  H  H112  1  0.315800  0.435800  0.561000  1.0  0.1903
  H  H113  1  0.354300  0.549300  0.472600  1.0  0.1024
  H  H114  1  0.326500  0.324500  0.311500  1.0  0.0945
  H  H115  1  0.297500  0.075600  0.909000  1.0  0.115
  H  H116  1  0.435800  0.120000  0.061000  1.0  0.1933
  H  H117  1  0.549300  0.195000  0.972600  1.0  0.1033
  H  H118  1  0.324500  0.998000  0.811500  1.0  0.0919
  H  H119  1  0.924400  0.221900  0.909000  1.0  0.1151
  H  H120  1  0.880000  0.315800  0.061000  1.0  0.185
  H  H121  1  0.805000  0.354300  0.972600  1.0  0.1028
  H  H122  1  0.002000  0.326500  0.811500  1.0  0.0942
  H  H123  1  0.778100  0.702500  0.909000  1.0  0.1159
  H  H124  1  0.684200  0.564200  0.061000  1.0  0.1442
  H  H125  1  0.701800  0.516900  0.210000  1.0  0.1188
  H  H126  1  0.727400  0.586300  0.210400  1.0  0.1252
  H  H127  1  0.672400  0.545100  0.164800  1.0  0.1225
  H  H128  1  0.645700  0.450700  0.972600  1.0  0.1024
  H  H129  1  0.673500  0.675500  0.811500  1.0  0.0918
  H  H130  1  0.924400  0.702500  0.591000  1.0  0.1146
  H  H131  1  0.880000  0.564200  0.439000  1.0  0.1435
  H  H132  1  0.815100  0.516900  0.290000  1.0  0.1178
  H  H133  1  0.858900  0.586300  0.289600  1.0  0.1277
  H  H134  1  0.872700  0.545100  0.335200  1.0  0.1218
  H  H135  1  0.805000  0.450700  0.527400  1.0  0.1024
  H  H136  1  0.002000  0.675500  0.688500  1.0  0.0939
  H  H137  1  0.778100  0.075600  0.591000  1.0  0.1108
  H  H138  1  0.684200  0.120000  0.439000  1.0  0.1872
  H  H139  1  0.645700  0.195000  0.527400  1.0  0.1029
  H  H140  1  0.673500  0.998000  0.688500  1.0  0.0941
  H  H141  1  0.297500  0.221900  0.591000  1.0  0.117
  H  H142  1  0.435800  0.315800  0.439000  1.0  0.1905
  H  H143  1  0.549300  0.354300  0.527400  1.0  0.1012
  H  H144  1  0.324500  0.326500  0.688500  1.0  0.0976
  H  H145  1  0.075600  0.297500  0.091000  1.0  0.1151
  H  H146  1  0.120000  0.435800  0.939000  1.0  0.1909
  H  H147  1  0.195000  0.549300  0.027400  1.0  0.1015
  H  H148  1  0.998000  0.324500  0.188500  1.0  0.0934
  H  H149  1  0.221900  0.924400  0.091000  1.0  0.1153
  H  H150  1  0.315800  0.880000  0.939000  1.0  0.186
  H  H151  1  0.354300  0.805000  0.027400  1.0  0.1029
  H  H152  1  0.326500  0.002000  0.188500  1.0  0.0955
  H  H153  1  0.702500  0.778100  0.091000  1.0  0.1135
  H  H154  1  0.564200  0.684200  0.939000  1.0  0.1871
  H  H155  1  0.450700  0.645700  0.027400  1.0  0.1014
  H  H156  1  0.675500  0.673500  0.188500  1.0  0.0975
  H  H157  1  0.421000  0.000000  0.500000  1.0  0.1138
  H  H158  1  0.000000  0.421000  0.500000  1.0  0.1135
  H  H159  1  0.579000  0.579000  0.500000  1.0  0.1145
  H  H160  1  0.579000  0.000000  0.000000  1.0  0.1131
  H  H161  1  0.000000  0.579000  0.000000  1.0  0.1142
  H  H162  1  0.421000  0.421000  0.000000  1.0  0.1138
  H  H163  1  0.579000  0.000000  0.500000  1.0  0.1123
  H  H164  1  0.000000  0.579000  0.500000  1.0  0.1143
  H  H165  1  0.421000  0.421000  0.500000  1.0  0.113
  H  H166  1  0.421000  0.000000  0.000000  1.0  0.1131
  H  H167  1  0.000000  0.421000  0.000000  1.0  0.1125
  H  H168  1  0.579000  0.579000  0.000000  1.0  0.1145
  H  H169  1  0.434100  0.217050  0.650600  1.0  0.1004
  H  H170  1  0.782950  0.217050  0.650600  1.0  0.1006
  H  H171  1  0.782950  0.565900  0.650600  1.0  0.1009
  H  H172  1  0.565900  0.782950  0.150600  1.0  0.1034
  H  H173  1  0.217050  0.782950  0.150600  1.0  0.1021
  H  H174  1  0.217050  0.434100  0.150600  1.0  0.1031
  H  H175  1  0.217050  0.434100  0.349400  1.0  0.1039
  H  H176  1  0.217050  0.782950  0.349400  1.0  0.1034
  H  H177  1  0.565900  0.782950  0.349400  1.0  0.1044
  H  H178  1  0.782950  0.565900  0.849400  1.0  0.1015
  H  H179  1  0.782950  0.217050  0.849400  1.0  0.1013
  H  H180  1  0.434100  0.217050  0.849400  1.0  0.1013
  H  H181  1  0.782940  0.914460  0.096110  1.0  0.1332
  H  H182  1  0.854660  0.986060  0.084720  1.0  0.1276
  H  H183  1  0.826800  0.928410  0.016810  1.0  0.1193
  H  H184  1  0.825970  0.272140  0.174140  1.0  0.1109
  H  H185  1  0.446370  0.177710  0.176540  1.0  0.0958
  H  H186  1  0.727860  0.174030  0.325860  1.0  0.1075
  H  H187  1  0.446370  0.268660  0.323460  1.0  0.0959
  H  H188  1  0.189890  0.153230  0.544640  1.0  0.1512
  H  H189  1  0.553830  0.825970  0.674140  1.0  0.1075
  H  H190  1  0.174030  0.727860  0.674140  1.0  0.108
  H  H191  1  0.272140  0.825970  0.825860  1.0  0.1068
  H  H192  1  0.553830  0.727860  0.825860  1.0  0.1076
  H  H193  1  0.731340  0.553630  0.323460  1.0  0.0958
  H  H194  1  0.822290  0.553630  0.176540  1.0  0.0921
  H  H195  1  0.036660  0.189890  0.455360  1.0  0.1242
  H  H196  1  0.153230  0.963340  0.455360  1.0  0.1272
  H  H197  1  0.807930  0.846430  0.453130  1.0  0.1153
  H  H198  1  0.961500  0.807930  0.953130  1.0  0.1457
  H  H199  1  0.846430  0.038500  0.953130  1.0  0.1495
  H  H200  1  0.189890  0.153230  0.955360  1.0  0.1559
  H  H201  1  0.268660  0.446370  0.676540  1.0  0.0965
  H  H202  1  0.961500  0.807930  0.546870  1.0  0.1442
  H  H203  1  0.846430  0.038500  0.546870  1.0  0.1465
  H  H204  1  0.036660  0.189890  0.044640  1.0  0.1272
  H  H205  1  0.177710  0.446370  0.823460  1.0  0.0973
  H  H206  1  0.153230  0.963340  0.044640  1.0  0.1262
  H  H207  1  0.810110  0.846770  0.044640  1.0  0.1253
  H  H208  1  0.101680  0.169710  0.016430  1.0  0.1235
  H  H209  1  0.130020  0.218280  0.092680  1.0  0.1282
  H  H210  1  0.132830  0.147610  0.088530  1.0  0.1344
  H  H211  1  0.016260  0.879300  0.057490  1.0  0.1359
  H  H212  1  0.091350  0.895310  0.027820  1.0  0.1738
  H  H213  1  0.063480  0.860870  0.112330  1.0  0.1307
  H  H214  1  0.140010  0.028510  0.535650  1.0  0.1292
  H  H215  1  0.211720  0.100110  0.547040  1.0  0.1358
  H  H216  1  0.183870  0.042460  0.614950  1.0  0.1304
  H  H217  1  0.130020  0.218280  0.407320  1.0  0.1266
  H  H218  1  0.101680  0.169710  0.483570  1.0  0.1263
  H  H219  1  0.132830  0.147610  0.411470  1.0  0.1346
  H  H220  1  0.211720  0.100110  0.952960  1.0  0.1347
  H  H221  1  0.140010  0.028510  0.964350  1.0  0.1299
  H  H222  1  0.183870  0.042460  0.885050  1.0  0.1262
  H  H223  1  0.902210  0.122310  0.574270  1.0  0.1094
  H  H224  1  0.977290  0.138320  0.603940  1.0  0.14
  H  H225  1  0.949420  0.103890  0.519430  1.0  0.1371
  H  H226  1  0.977290  0.138320  0.896060  1.0  0.1406
  H  H227  1  0.902210  0.122310  0.925730  1.0  0.1094
  H  H228  1  0.949420  0.103890  0.980570  1.0  0.1372
  H  H229  1  0.091350  0.895310  0.472180  1.0  0.1718
  H  H230  1  0.016260  0.879300  0.442510  1.0  0.1343
  H  H231  1  0.063480  0.860870  0.387670  1.0  0.1292
  H  H232  1  0.858660  0.812650  0.615330  1.0  0.1326
  H  H233  1  0.887000  0.861210  0.539090  1.0  0.1313
  H  H234  1  0.889810  0.790540  0.543230  1.0  0.1213
  H  H235  1  0.854660  0.986060  0.415280  1.0  0.1302
  H  H236  1  0.782940  0.914460  0.403890  1.0  0.128
  H  H237  1  0.826800  0.928410  0.483190  1.0  0.1201
  H  H238  1  0.887000  0.861210  0.960910  1.0  0.1297
  H  H239  1  0.858660  0.812650  0.884670  1.0  0.1349
  H  H240  1  0.889810  0.790540  0.956770  1.0  0.127
  C  C241  1  0.314800  0.022100  0.527000  1.0  0.1479
  C  C242  1  0.282600  0.046400  0.556000  1.0  -0.0626
  C  C243  1  0.221700  0.021200  0.525700  1.0  -0.0821
  C  C244  1  0.187000  0.050000  0.558000  1.0  -0.345
  C  C245  1  0.432300  0.190200  0.498500  1.0  0.1115
  C  C246  1  0.436500  0.157100  0.438300  1.0  -0.0246
  C  C247  1  0.441900  0.194000  0.375500  1.0  -0.0525
  C  C248  1  0.449000  0.158000  0.317000  1.0  -0.3554
  C  C249  1  0.555000  0.164200  0.545800  1.0  0.0201
  C  C250  1  0.354100  0.028500  0.716200  1.0  0.0163
  C  C251  1  0.977900  0.292700  0.527000  1.0  0.1487
  C  C252  1  0.953600  0.236200  0.556000  1.0  -0.04
  C  C253  1  0.978800  0.200500  0.525700  1.0  -0.0792
  C  C254  1  0.950000  0.137000  0.558000  1.0  -0.3695
  C  C255  1  0.809800  0.242100  0.498500  1.0  0.1097
  C  C256  1  0.842900  0.279400  0.438300  1.0  -0.0243
  C  C257  1  0.806000  0.247900  0.375500  1.0  -0.0458
  C  C258  1  0.842000  0.291000  0.317000  1.0  -0.3529
  C  C259  1  0.835800  0.390800  0.545800  1.0  0.0218
  C  C260  1  0.971500  0.325600  0.716200  1.0  0.0142
  C  C261  1  0.707300  0.685200  0.527000  1.0  0.1486
  C  C262  1  0.763800  0.717400  0.556000  1.0  -0.0626
  C  C263  1  0.799500  0.778300  0.525700  1.0  -0.0977
  C  C264  1  0.863000  0.813000  0.558000  1.0  -0.3454
  C  C265  1  0.757900  0.567700  0.498500  1.0  0.1105
  C  C266  1  0.720600  0.563500  0.438300  1.0  -0.0196
  C  C267  1  0.752100  0.558100  0.375500  1.0  0.0157
  C  C268  1  0.609200  0.445000  0.545800  1.0  0.0227
  C  C269  1  0.674400  0.645900  0.716200  1.0  0.0141
  C  C270  1  0.685200  0.977900  0.027000  1.0  0.1492
  C  C271  1  0.717400  0.953600  0.056000  1.0  -0.0681
  C  C272  1  0.778300  0.978800  0.025700  1.0  -0.0897
  C  C273  1  0.813000  0.950000  0.058000  1.0  -0.3679
  C  C274  1  0.567700  0.809800  0.998500  1.0  0.1037
  C  C275  1  0.563500  0.842900  0.938300  1.0  -0.0251
  C  C276  1  0.558100  0.806000  0.875500  1.0  -0.0469
  C  C277  1  0.551000  0.842000  0.817000  1.0  -0.3526
  C  C278  1  0.445000  0.835800  0.045800  1.0  0.0198
  C  C279  1  0.645900  0.971500  0.216200  1.0  0.0161
  C  C280  1  0.022100  0.707300  0.027000  1.0  0.1476
  C  C281  1  0.046400  0.763800  0.056000  1.0  -0.0417
  C  C282  1  0.021200  0.799500  0.025700  1.0  -0.0869
  C  C283  1  0.050000  0.863000  0.058000  1.0  -0.3644
  C  C284  1  0.190200  0.757900  0.998500  1.0  0.112
  C  C285  1  0.157100  0.720600  0.938300  1.0  -0.0243
  C  C286  1  0.194000  0.752100  0.875500  1.0  -0.0455
  C  C287  1  0.158000  0.709000  0.817000  1.0  -0.3534
  C  C288  1  0.164200  0.609200  0.045800  1.0  0.0229
  C  C289  1  0.028500  0.674400  0.216200  1.0  0.014
  C  C290  1  0.292700  0.314800  0.027000  1.0  0.1482
  C  C291  1  0.236200  0.282600  0.056000  1.0  -0.0671
  C  C292  1  0.200500  0.221700  0.025700  1.0  -0.0832
  C  C293  1  0.137000  0.187000  0.058000  1.0  -0.3701
  C  C294  1  0.242100  0.432300  0.998500  1.0  0.1043
  C  C295  1  0.279400  0.436500  0.938300  1.0  -0.026
  C  C296  1  0.247900  0.441900  0.875500  1.0  -0.0537
  C  C297  1  0.291000  0.449000  0.817000  1.0  -0.3546
  C  C298  1  0.390800  0.555000  0.045800  1.0  0.0205
  C  C299  1  0.325600  0.354100  0.216200  1.0  0.0117
  C  C300  1  0.022100  0.314800  0.473000  1.0  0.1473
  C  C301  1  0.046400  0.282600  0.444000  1.0  -0.0791
  C  C302  1  0.021200  0.221700  0.474300  1.0  -0.0485
  C  C303  1  0.190200  0.432300  0.501500  1.0  0.1041
  C  C304  1  0.157100  0.436500  0.561700  1.0  -0.0287
  C  C305  1  0.194000  0.441900  0.624500  1.0  -0.0546
  C  C306  1  0.158000  0.449000  0.683000  1.0  -0.3551
  C  C307  1  0.164200  0.555000  0.454200  1.0  0.0222
  C  C308  1  0.028500  0.354100  0.283800  1.0  0.0155
  C  C309  1  0.292700  0.977900  0.473000  1.0  0.1466
  C  C310  1  0.236200  0.953600  0.444000  1.0  -0.0842
  C  C311  1  0.200500  0.978800  0.474300  1.0  -0.024
  C  C312  1  0.242100  0.809800  0.501500  1.0  0.1126
  C  C313  1  0.279400  0.842900  0.561700  1.0  -0.0237
  C  C314  1  0.247900  0.806000  0.624500  1.0  -0.0455
  C  C315  1  0.291000  0.842000  0.683000  1.0  -0.3538
  C  C316  1  0.390800  0.835800  0.454200  1.0  0.0185
  C  C317  1  0.325600  0.971500  0.283800  1.0  0.0185
  C  C318  1  0.685200  0.707300  0.473000  1.0  0.1493
  C  C319  1  0.717400  0.763800  0.444000  1.0  -0.0767
  C  C320  1  0.778300  0.799500  0.474300  1.0  -0.0657
  C  C321  1  0.567700  0.757900  0.501500  1.0  0.1022
  C  C322  1  0.563500  0.720600  0.561700  1.0  -0.0245
  C  C323  1  0.558100  0.752100  0.624500  1.0  -0.0456
  C  C324  1  0.551000  0.709000  0.683000  1.0  -0.3525
  C  C325  1  0.445000  0.609200  0.454200  1.0  0.0213
  C  C326  1  0.645900  0.674400  0.283800  1.0  0.0132
  C  C327  1  0.977900  0.685200  0.973000  1.0  0.1484
  C  C328  1  0.953600  0.717400  0.944000  1.0  -0.0883
  C  C329  1  0.978800  0.778300  0.974300  1.0  -0.0389
  C  C330  1  0.809800  0.567700  0.001500  1.0  0.1112
  C  C331  1  0.842900  0.563500  0.061700  1.0  -0.0185
  C  C332  1  0.806000  0.558100  0.124500  1.0  0.0176
  C  C333  1  0.835800  0.445000  0.954200  1.0  0.0212
  C  C334  1  0.971500  0.645900  0.783800  1.0  0.0153
  C  C335  1  0.707300  0.022100  0.973000  1.0  0.1487
  C  C336  1  0.763800  0.046400  0.944000  1.0  -0.0935
  C  C337  1  0.799500  0.021200  0.974300  1.0  -0.0598
  C  C338  1  0.757900  0.190200  0.001500  1.0  0.1103
  C  C339  1  0.720600  0.157100  0.061700  1.0  -0.0256
  C  C340  1  0.752100  0.194000  0.124500  1.0  -0.0448
  C  C341  1  0.709000  0.158000  0.183000  1.0  -0.3534
  C  C342  1  0.609200  0.164200  0.954200  1.0  0.0209
  C  C343  1  0.674400  0.028500  0.783800  1.0  0.018
  C  C344  1  0.314800  0.292700  0.973000  1.0  0.1469
  C  C345  1  0.282600  0.236200  0.944000  1.0  -0.095
  C  C346  1  0.221700  0.200500  0.974300  1.0  -0.0368
  C  C347  1  0.432300  0.242100  0.001500  1.0  0.1099
  C  C348  1  0.436500  0.279400  0.061700  1.0  -0.0246
  C  C349  1  0.441900  0.247900  0.124500  1.0  -0.0532
  C  C350  1  0.449000  0.291000  0.183000  1.0  -0.3565
  C  C351  1  0.555000  0.390800  0.954200  1.0  0.0241
  C  C352  1  0.354100  0.325600  0.783800  1.0  0.0184
  C  C353  1  0.685200  0.977900  0.473000  1.0  0.1499
  C  C354  1  0.717400  0.953600  0.444000  1.0  -0.0669
  C  C355  1  0.778300  0.978800  0.474300  1.0  -0.086
  C  C356  1  0.813000  0.950000  0.442000  1.0  -0.3663
  C  C357  1  0.567700  0.809800  0.501500  1.0  0.1023
  C  C358  1  0.563500  0.842900  0.561700  1.0  -0.0304
  C  C359  1  0.558100  0.806000  0.624500  1.0  0.0183
  C  C360  1  0.445000  0.835800  0.454200  1.0  0.0192
  C  C361  1  0.645900  0.971500  0.283800  1.0  0.0132
  C  C362  1  0.022100  0.707300  0.473000  1.0  0.148
  C  C363  1  0.046400  0.763800  0.444000  1.0  -0.0404
  C  C364  1  0.021200  0.799500  0.474300  1.0  -0.0905
  C  C365  1  0.050000  0.863000  0.442000  1.0  -0.3638
  C  C366  1  0.190200  0.757900  0.501500  1.0  0.1127
  C  C367  1  0.157100  0.720600  0.561700  1.0  -0.0304
  C  C368  1  0.194000  0.752100  0.624500  1.0  0.0165
  C  C369  1  0.164200  0.609200  0.454200  1.0  0.0215
  C  C370  1  0.028500  0.674400  0.283800  1.0  0.0176
  C  C371  1  0.292700  0.314800  0.473000  1.0  0.1505
  C  C372  1  0.236200  0.282600  0.444000  1.0  -0.0665
  C  C373  1  0.200500  0.221700  0.474300  1.0  -0.0825
  C  C374  1  0.137000  0.187000  0.442000  1.0  -0.3701
  C  C375  1  0.242100  0.432300  0.501500  1.0  0.1038
  C  C376  1  0.279400  0.436500  0.561700  1.0  -0.0178
  C  C377  1  0.247900  0.441900  0.624500  1.0  0.0229
  C  C378  1  0.390800  0.555000  0.454200  1.0  0.0198
  C  C379  1  0.325600  0.354100  0.283800  1.0  0.0057
  C  C380  1  0.314800  0.022100  0.973000  1.0  0.1484
  C  C381  1  0.282600  0.046400  0.944000  1.0  -0.0615
  C  C382  1  0.221700  0.021200  0.974300  1.0  -0.081
  C  C383  1  0.187000  0.050000  0.942000  1.0  -0.3445
  C  C384  1  0.432300  0.190200  0.001500  1.0  0.1096
  C  C385  1  0.436500  0.157100  0.061700  1.0  -0.0187
  C  C386  1  0.441900  0.194000  0.124500  1.0  0.0161
  C  C387  1  0.555000  0.164200  0.954200  1.0  0.0191
  C  C388  1  0.354100  0.028500  0.783800  1.0  0.016
  C  C389  1  0.977900  0.292700  0.973000  1.0  0.1494
  C  C390  1  0.953600  0.236200  0.944000  1.0  -0.0397
  C  C391  1  0.978800  0.200500  0.974300  1.0  -0.0849
  C  C392  1  0.950000  0.137000  0.942000  1.0  -0.3689
  C  C393  1  0.809800  0.242100  0.001500  1.0  0.1105
  C  C394  1  0.842900  0.279400  0.061700  1.0  -0.0275
  C  C395  1  0.806000  0.247900  0.124500  1.0  0.0171
  C  C396  1  0.835800  0.390800  0.954200  1.0  0.0219
  C  C397  1  0.971500  0.325600  0.783800  1.0  0.0077
  C  C398  1  0.707300  0.685200  0.973000  1.0  0.1496
  C  C399  1  0.763800  0.717400  0.944000  1.0  -0.0619
  C  C400  1  0.799500  0.778300  0.974300  1.0  -0.0858
  C  C401  1  0.863000  0.813000  0.942000  1.0  -0.3421
  C  C402  1  0.757900  0.567700  0.001500  1.0  0.1106
  C  C403  1  0.720600  0.563500  0.061700  1.0  -0.0296
  C  C404  1  0.752100  0.558100  0.124500  1.0  -0.0577
  C  C405  1  0.709000  0.551000  0.183000  1.0  -0.3548
  C  C406  1  0.609200  0.445000  0.954200  1.0  0.0232
  C  C407  1  0.674400  0.645900  0.783800  1.0  0.0116
  C  C408  1  0.977900  0.685200  0.527000  1.0  0.1502
  C  C409  1  0.953600  0.717400  0.556000  1.0  -0.09
  C  C410  1  0.978800  0.778300  0.525700  1.0  -0.0387
  C  C411  1  0.809800  0.567700  0.498500  1.0  0.1121
  C  C412  1  0.842900  0.563500  0.438300  1.0  -0.0261
  C  C413  1  0.806000  0.558100  0.375500  1.0  -0.0577
  C  C414  1  0.842000  0.551000  0.317000  1.0  -0.3549
  C  C415  1  0.835800  0.445000  0.545800  1.0  0.0215
  C  C416  1  0.971500  0.645900  0.716200  1.0  0.0104
  C  C417  1  0.707300  0.022100  0.527000  1.0  0.1501
  C  C418  1  0.763800  0.046400  0.556000  1.0  -0.094
  C  C419  1  0.799500  0.021200  0.525700  1.0  -0.0587
  C  C420  1  0.757900  0.190200  0.498500  1.0  0.1103
  C  C421  1  0.720600  0.157100  0.438300  1.0  -0.0286
  C  C422  1  0.752100  0.194000  0.375500  1.0  0.0164
  C  C423  1  0.609200  0.164200  0.545800  1.0  0.0197
  C  C424  1  0.674400  0.028500  0.716200  1.0  0.012
  C  C425  1  0.314800  0.292700  0.527000  1.0  0.1488
  C  C426  1  0.282600  0.236200  0.556000  1.0  -0.095
  C  C427  1  0.221700  0.200500  0.525700  1.0  -0.0425
  C  C428  1  0.432300  0.242100  0.498500  1.0  0.1116
  C  C429  1  0.436500  0.279400  0.438300  1.0  -0.0159
  C  C430  1  0.441900  0.247900  0.375500  1.0  0.0135
  C  C431  1  0.555000  0.390800  0.545800  1.0  0.0238
  C  C432  1  0.354100  0.325600  0.716200  1.0  0.0116
  C  C433  1  0.022100  0.314800  0.027000  1.0  0.1501
  C  C434  1  0.046400  0.282600  0.056000  1.0  -0.0783
  C  C435  1  0.021200  0.221700  0.025700  1.0  -0.0418
  C  C436  1  0.190200  0.432300  0.998500  1.0  0.1041
  C  C437  1  0.157100  0.436500  0.938300  1.0  -0.0183
  C  C438  1  0.194000  0.441900  0.875500  1.0  0.0118
  C  C439  1  0.164200  0.555000  0.045800  1.0  0.0217
  C  C440  1  0.028500  0.354100  0.216200  1.0  0.0097
  C  C441  1  0.292700  0.977900  0.027000  1.0  0.1492
  C  C442  1  0.236200  0.953600  0.056000  1.0  -0.0855
  C  C443  1  0.200500  0.978800  0.025700  1.0  -0.0174
  C  C444  1  0.242100  0.809800  0.998500  1.0  0.1128
  C  C445  1  0.279400  0.842900  0.938300  1.0  -0.0301
  C  C446  1  0.247900  0.806000  0.875500  1.0  0.0098
  C  C447  1  0.390800  0.835800  0.045800  1.0  0.0175
  C  C448  1  0.325600  0.971500  0.216200  1.0  0.0124
  C  C449  1  0.685200  0.707300  0.027000  1.0  0.1487
  C  C450  1  0.717400  0.763800  0.056000  1.0  -0.0774
  C  C451  1  0.778300  0.799500  0.025700  1.0  -0.0534
  C  C452  1  0.567700  0.757900  0.998500  1.0  0.1029
  C  C453  1  0.563500  0.720600  0.938300  1.0  -0.0269
  C  C454  1  0.558100  0.752100  0.875500  1.0  0.0106
  C  C455  1  0.445000  0.609200  0.045800  1.0  0.0214
  C  C456  1  0.645900  0.674400  0.216200  1.0  0.0186
  C  C457  1  0.384200  0.000000  0.500000  1.0  0.2197
  C  C458  1  0.000000  0.384200  0.500000  1.0  0.2211
  C  C459  1  0.615800  0.615800  0.500000  1.0  0.2191
  C  C460  1  0.615800  0.000000  0.000000  1.0  0.2187
  C  C461  1  0.000000  0.615800  0.000000  1.0  0.2185
  C  C462  1  0.384200  0.384200  0.000000  1.0  0.2205
  C  C463  1  0.615800  0.000000  0.500000  1.0  0.2177
  C  C464  1  0.000000  0.615800  0.500000  1.0  0.2189
  C  C465  1  0.384200  0.384200  0.500000  1.0  0.219
  C  C466  1  0.384200  0.000000  0.000000  1.0  0.2187
  C  C467  1  0.000000  0.384200  0.000000  1.0  0.2197
  C  C468  1  0.615800  0.615800  0.000000  1.0  0.2194
  C  C469  1  0.432100  0.216050  0.602600  1.0  0.227
  C  C470  1  0.783950  0.216050  0.602600  1.0  0.2271
  C  C471  1  0.783950  0.567900  0.602600  1.0  0.227
  C  C472  1  0.567900  0.783950  0.102600  1.0  0.2269
  C  C473  1  0.216050  0.783950  0.102600  1.0  0.227
  C  C474  1  0.216050  0.432100  0.102600  1.0  0.2269
  C  C475  1  0.216050  0.432100  0.397400  1.0  0.227
  C  C476  1  0.216050  0.783950  0.397400  1.0  0.2264
  C  C477  1  0.567900  0.783950  0.397400  1.0  0.227
  C  C478  1  0.783950  0.567900  0.897400  1.0  0.227
  C  C479  1  0.783950  0.216050  0.897400  1.0  0.227
  C  C480  1  0.432100  0.216050  0.897400  1.0  0.2268
  C  C481  1  0.545850  0.091700  0.591300  1.0  0.443
  C  C482  1  0.908300  0.454150  0.591300  1.0  0.443
  C  C483  1  0.545850  0.454150  0.591300  1.0  0.4416
  C  C484  1  0.454150  0.908300  0.091300  1.0  0.443
  C  C485  1  0.091700  0.545850  0.091300  1.0  0.4413
  C  C486  1  0.454150  0.545850  0.091300  1.0  0.4436
  C  C487  1  0.091700  0.545850  0.408700  1.0  0.443
  C  C488  1  0.454150  0.908300  0.408700  1.0  0.443
  C  C489  1  0.454150  0.545850  0.408700  1.0  0.4402
  C  C490  1  0.908300  0.454150  0.908700  1.0  0.441
  C  C491  1  0.545850  0.091700  0.908700  1.0  0.4422
  C  C492  1  0.545850  0.454150  0.908700  1.0  0.4434
  C  C493  1  0.429600  0.106200  0.750000  1.0  0.2875
  C  C494  1  0.893800  0.323400  0.750000  1.0  0.2897
  C  C495  1  0.676600  0.570400  0.750000  1.0  0.2886
  C  C496  1  0.570400  0.893800  0.250000  1.0  0.2891
  C  C497  1  0.106200  0.676600  0.250000  1.0  0.2896
  C  C498  1  0.323400  0.429600  0.250000  1.0  0.2888
  C  C499  1  0.106200  0.429600  0.250000  1.0  0.2881
  C  C500  1  0.323400  0.893800  0.250000  1.0  0.288
  C  C501  1  0.570400  0.676600  0.250000  1.0  0.2892
  C  C502  1  0.893800  0.570400  0.750000  1.0  0.2888
  C  C503  1  0.676600  0.106200  0.750000  1.0  0.2882
  C  C504  1  0.429600  0.323400  0.750000  1.0  0.2888
  N  N505  1  0.371300  0.035100  0.542800  1.0  -0.4129
  N  N506  1  0.430600  0.170800  0.564100  1.0  -0.4702
  N  N507  1  0.511700  0.113600  0.575800  1.0  -0.4124
  N  N508  1  0.404200  0.080000  0.693100  1.0  -0.4354
  N  N509  1  0.964900  0.336200  0.542800  1.0  -0.4131
  N  N510  1  0.829200  0.259800  0.564100  1.0  -0.4709
  N  N511  1  0.886400  0.398100  0.575800  1.0  -0.4107
  N  N512  1  0.920000  0.324200  0.693100  1.0  -0.4356
  N  N513  1  0.663800  0.628700  0.542800  1.0  -0.4106
  N  N514  1  0.740200  0.569400  0.564100  1.0  -0.4726
  N  N515  1  0.601900  0.488300  0.575800  1.0  -0.4116
  N  N516  1  0.675800  0.595800  0.693100  1.0  -0.4345
  N  N517  1  0.628700  0.964900  0.042800  1.0  -0.4125
  N  N518  1  0.569400  0.829200  0.064100  1.0  -0.4709
  N  N519  1  0.488300  0.886400  0.075800  1.0  -0.4113
  N  N520  1  0.595800  0.920000  0.193100  1.0  -0.4351
  N  N521  1  0.035100  0.663800  0.042800  1.0  -0.4122
  N  N522  1  0.170800  0.740200  0.064100  1.0  -0.4708
  N  N523  1  0.113600  0.601900  0.075800  1.0  -0.4109
  N  N524  1  0.080000  0.675800  0.193100  1.0  -0.4352
  N  N525  1  0.336200  0.371300  0.042800  1.0  -0.4125
  N  N526  1  0.259800  0.430600  0.064100  1.0  -0.4745
  N  N527  1  0.398100  0.511700  0.075800  1.0  -0.4127
  N  N528  1  0.324200  0.404200  0.193100  1.0  -0.4348
  N  N529  1  0.035100  0.371300  0.457200  1.0  -0.4108
  N  N530  1  0.170800  0.430600  0.435900  1.0  -0.4742
  N  N531  1  0.113600  0.511700  0.424200  1.0  -0.4134
  N  N532  1  0.080000  0.404200  0.306900  1.0  -0.4339
  N  N533  1  0.336200  0.964900  0.457200  1.0  -0.4118
  N  N534  1  0.259800  0.829200  0.435900  1.0  -0.4722
  N  N535  1  0.398100  0.886400  0.424200  1.0  -0.4123
  N  N536  1  0.324200  0.920000  0.306900  1.0  -0.4337
  N  N537  1  0.628700  0.663800  0.457200  1.0  -0.4112
  N  N538  1  0.569400  0.740200  0.435900  1.0  -0.4723
  N  N539  1  0.488300  0.601900  0.424200  1.0  -0.4104
  N  N540  1  0.595800  0.675800  0.306900  1.0  -0.4352
  N  N541  1  0.964900  0.628700  0.957200  1.0  -0.4107
  N  N542  1  0.829200  0.569400  0.935900  1.0  -0.4753
  N  N543  1  0.886400  0.488300  0.924200  1.0  -0.4111
  N  N544  1  0.920000  0.595800  0.806900  1.0  -0.434
  N  N545  1  0.663800  0.035100  0.957200  1.0  -0.4122
  N  N546  1  0.740200  0.170800  0.935900  1.0  -0.4724
  N  N547  1  0.601900  0.113600  0.924200  1.0  -0.4114
  N  N548  1  0.675800  0.080000  0.806900  1.0  -0.4349
  N  N549  1  0.371300  0.336200  0.957200  1.0  -0.4125
  N  N550  1  0.430600  0.259800  0.935900  1.0  -0.4718
  N  N551  1  0.511700  0.398100  0.924200  1.0  -0.4112
  N  N552  1  0.404200  0.324200  0.806900  1.0  -0.4335
  N  N553  1  0.628700  0.964900  0.457200  1.0  -0.4112
  N  N554  1  0.569400  0.829200  0.435900  1.0  -0.4721
  N  N555  1  0.488300  0.886400  0.424200  1.0  -0.4109
  N  N556  1  0.595800  0.920000  0.306900  1.0  -0.4352
  N  N557  1  0.035100  0.663800  0.457200  1.0  -0.4119
  N  N558  1  0.170800  0.740200  0.435900  1.0  -0.4721
  N  N559  1  0.113600  0.601900  0.424200  1.0  -0.4112
  N  N560  1  0.080000  0.675800  0.306900  1.0  -0.4341
  N  N561  1  0.336200  0.371300  0.457200  1.0  -0.4113
  N  N562  1  0.259800  0.430600  0.435900  1.0  -0.4753
  N  N563  1  0.398100  0.511700  0.424200  1.0  -0.4129
  N  N564  1  0.324200  0.404200  0.306900  1.0  -0.4347
  N  N565  1  0.371300  0.035100  0.957200  1.0  -0.411
  N  N566  1  0.430600  0.170800  0.935900  1.0  -0.472
  N  N567  1  0.511700  0.113600  0.924200  1.0  -0.4127
  N  N568  1  0.404200  0.080000  0.806900  1.0  -0.4348
  N  N569  1  0.964900  0.336200  0.957200  1.0  -0.412
  N  N570  1  0.829200  0.259800  0.935900  1.0  -0.4721
  N  N571  1  0.886400  0.398100  0.924200  1.0  -0.4109
  N  N572  1  0.920000  0.324200  0.806900  1.0  -0.4354
  N  N573  1  0.663800  0.628700  0.957200  1.0  -0.4112
  N  N574  1  0.740200  0.569400  0.935900  1.0  -0.474
  N  N575  1  0.601900  0.488300  0.924200  1.0  -0.4123
  N  N576  1  0.675800  0.595800  0.806900  1.0  -0.4352
  N  N577  1  0.964900  0.628700  0.542800  1.0  -0.4107
  N  N578  1  0.829200  0.569400  0.564100  1.0  -0.4742
  N  N579  1  0.886400  0.488300  0.575800  1.0  -0.4116
  N  N580  1  0.920000  0.595800  0.693100  1.0  -0.4351
  N  N581  1  0.663800  0.035100  0.542800  1.0  -0.4107
  N  N582  1  0.740200  0.170800  0.564100  1.0  -0.4719
  N  N583  1  0.601900  0.113600  0.575800  1.0  -0.411
  N  N584  1  0.675800  0.080000  0.693100  1.0  -0.4357
  N  N585  1  0.371300  0.336200  0.542800  1.0  -0.412
  N  N586  1  0.430600  0.259800  0.564100  1.0  -0.4719
  N  N587  1  0.511700  0.398100  0.575800  1.0  -0.411
  N  N588  1  0.404200  0.324200  0.693100  1.0  -0.4346
  N  N589  1  0.035100  0.371300  0.042800  1.0  -0.4107
  N  N590  1  0.170800  0.430600  0.064100  1.0  -0.474
  N  N591  1  0.113600  0.511700  0.075800  1.0  -0.4135
  N  N592  1  0.080000  0.404200  0.193100  1.0  -0.4355
  N  N593  1  0.336200  0.964900  0.042800  1.0  -0.4106
  N  N594  1  0.259800  0.829200  0.064100  1.0  -0.4711
  N  N595  1  0.398100  0.886400  0.075800  1.0  -0.4124
  N  N596  1  0.324200  0.920000  0.193100  1.0  -0.4347
  N  N597  1  0.628700  0.663800  0.042800  1.0  -0.4117
  N  N598  1  0.569400  0.740200  0.064100  1.0  -0.4721
  N  N599  1  0.488300  0.601900  0.075800  1.0  -0.411
  N  N600  1  0.595800  0.675800  0.193100  1.0  -0.4351
  N  N601  1  0.519500  0.039000  0.630000  1.0  0.4853
  N  N602  1  0.961000  0.480500  0.630000  1.0  0.4862
  N  N603  1  0.519500  0.480500  0.630000  1.0  0.4862
  N  N604  1  0.480500  0.961000  0.130000  1.0  0.4847
  N  N605  1  0.039000  0.519500  0.130000  1.0  0.4889
  N  N606  1  0.480500  0.519500  0.130000  1.0  0.4818
  N  N607  1  0.039000  0.519500  0.370000  1.0  0.4789
  N  N608  1  0.480500  0.961000  0.370000  1.0  0.4839
  N  N609  1  0.480500  0.519500  0.370000  1.0  0.4877
  N  N610  1  0.961000  0.480500  0.870000  1.0  0.4856
  N  N611  1  0.519500  0.039000  0.870000  1.0  0.484
  N  N612  1  0.519500  0.480500  0.870000  1.0  0.4839
  N  N613  1  0.486600  0.162000  0.750000  1.0  0.5515
  N  N614  1  0.838000  0.324600  0.750000  1.0  0.5516
  N  N615  1  0.675400  0.513400  0.750000  1.0  0.5516
  N  N616  1  0.513400  0.838000  0.250000  1.0  0.5519
  N  N617  1  0.162000  0.675400  0.250000  1.0  0.5507
  N  N618  1  0.324600  0.486600  0.250000  1.0  0.5519
  N  N619  1  0.162000  0.486600  0.250000  1.0  0.5522
  N  N620  1  0.324600  0.838000  0.250000  1.0  0.5517
  N  N621  1  0.513400  0.675400  0.250000  1.0  0.5508
  N  N622  1  0.838000  0.513400  0.750000  1.0  0.5509
  N  N623  1  0.675400  0.162000  0.750000  1.0  0.5528
  N  N624  1  0.486600  0.324600  0.750000  1.0  0.5512
  O  O625  1  0.545300  0.008400  0.632400  1.0  -0.5492
  O  O626  1  0.508500  0.185800  0.694700  1.0  -0.4904
  O  O627  1  0.991600  0.536900  0.632400  1.0  -0.5572
  O  O628  1  0.814200  0.322700  0.694700  1.0  -0.4908
  O  O629  1  0.463100  0.454700  0.632400  1.0  -0.5438
  O  O630  1  0.677300  0.491500  0.694700  1.0  -0.4883
  O  O631  1  0.454700  0.991600  0.132400  1.0  -0.5412
  O  O632  1  0.491500  0.814200  0.194700  1.0  -0.4893
  O  O633  1  0.008400  0.463100  0.132400  1.0  -0.5445
  O  O634  1  0.185800  0.677300  0.194700  1.0  -0.4922
  O  O635  1  0.536900  0.545300  0.132400  1.0  -0.5505
  O  O636  1  0.322700  0.508500  0.194700  1.0  -0.4872
  O  O637  1  0.008400  0.545300  0.367600  1.0  -0.551
  O  O638  1  0.185800  0.508500  0.305300  1.0  -0.4873
  O  O639  1  0.536900  0.991600  0.367600  1.0  -0.5507
  O  O640  1  0.322700  0.814200  0.305300  1.0  -0.4895
  O  O641  1  0.454700  0.463100  0.367600  1.0  -0.541
  O  O642  1  0.491500  0.677300  0.305300  1.0  -0.4909
  O  O643  1  0.991600  0.454700  0.867600  1.0  -0.5422
  O  O644  1  0.814200  0.491500  0.805300  1.0  -0.4876
  O  O645  1  0.463100  0.008400  0.867600  1.0  -0.5489
  O  O646  1  0.677300  0.185800  0.805300  1.0  -0.4898
  O  O647  1  0.545300  0.536900  0.867600  1.0  -0.558
  O  O648  1  0.508500  0.322700  0.805300  1.0  -0.4913
  O  O649  1  0.454700  0.991600  0.367600  1.0  -0.5504
  O  O650  1  0.491500  0.814200  0.305300  1.0  -0.4891
  O  O651  1  0.008400  0.463100  0.367600  1.0  -0.5556
  O  O652  1  0.185800  0.677300  0.305300  1.0  -0.492
  O  O653  1  0.536900  0.545300  0.367600  1.0  -0.5351
  O  O654  1  0.322700  0.508500  0.305300  1.0  -0.4867
  O  O655  1  0.545300  0.008400  0.867600  1.0  -0.5497
  O  O656  1  0.508500  0.185800  0.805300  1.0  -0.4898
  O  O657  1  0.991600  0.536900  0.867600  1.0  -0.5538
  O  O658  1  0.814200  0.322700  0.805300  1.0  -0.4902
  O  O659  1  0.463100  0.454700  0.867600  1.0  -0.5508
  O  O660  1  0.677300  0.491500  0.805300  1.0  -0.4881
  O  O661  1  0.991600  0.454700  0.632400  1.0  -0.5483
  O  O662  1  0.814200  0.491500  0.694700  1.0  -0.4875
  O  O663  1  0.463100  0.008400  0.632400  1.0  -0.5498
  O  O664  1  0.677300  0.185800  0.694700  1.0  -0.4902
  O  O665  1  0.545300  0.536900  0.632400  1.0  -0.5552
  O  O666  1  0.508500  0.322700  0.694700  1.0  -0.4922
  O  O667  1  0.008400  0.545300  0.132400  1.0  -0.5344
  O  O668  1  0.185800  0.508500  0.194700  1.0  -0.4881
  O  O669  1  0.536900  0.991600  0.132400  1.0  -0.5502
  O  O670  1  0.322700  0.814200  0.194700  1.0  -0.4903
  O  O671  1  0.454700  0.463100  0.132400  1.0  -0.5559
  O  O672  1  0.491500  0.677300  0.194700  1.0  -0.4908
