# generated using pymatgen
data_ZnH6C10BrN5O2
_symmetry_space_group_name_H-M   'P 1'
_cell_length_a   19.69970000
_cell_length_b   25.99290000
_cell_length_c   25.99290000
_cell_angle_alpha   120.00000000
_cell_angle_beta   90.00000000
_cell_angle_gamma   90.00000000
_symmetry_Int_Tables_number   1
_chemical_formula_structural   ZnH6C10BrN5O2
_chemical_formula_sum   'Zn24 H144 C240 Br24 N120 O48'
_cell_volume   11526.56002266
_cell_formula_units_Z   24
loop_
 _symmetry_equiv_pos_site_id
 _symmetry_equiv_pos_as_xyz
  1  'x, y, z'
loop_
 _atom_site_type_symbol
 _atom_site_label
 _atom_site_symmetry_multiplicity
 _atom_site_fract_x
 _atom_site_fract_y
 _atom_site_fract_z
 _atom_site_occupancy
 _atom_site_charge
  Zn  Zn1  1  0.597130  0.898220  0.332090  1.0  0.8115
  Zn  Zn2  1  0.597130  0.433870  0.101780  1.0  0.8114
  Zn  Zn3  1  0.597130  0.667910  0.566130  1.0  0.8154
  Zn  Zn4  1  0.097130  0.101780  0.667910  1.0  0.8152
  Zn  Zn5  1  0.097130  0.566130  0.898220  1.0  0.8191
  Zn  Zn6  1  0.097130  0.332090  0.433870  1.0  0.8148
  Zn  Zn7  1  0.402870  0.566130  0.667910  1.0  0.819
  Zn  Zn8  1  0.402870  0.332090  0.898220  1.0  0.819
  Zn  Zn9  1  0.402870  0.101780  0.433870  1.0  0.819
  Zn  Zn10  1  0.902870  0.433870  0.332090  1.0  0.8181
  Zn  Zn11  1  0.902870  0.667910  0.101780  1.0  0.8186
  Zn  Zn12  1  0.902870  0.898220  0.566130  1.0  0.819
  Zn  Zn13  1  0.402870  0.101780  0.667910  1.0  0.8199
  Zn  Zn14  1  0.402870  0.566130  0.898220  1.0  0.8198
  Zn  Zn15  1  0.402870  0.332090  0.433870  1.0  0.8196
  Zn  Zn16  1  0.902870  0.898220  0.332090  1.0  0.8201
  Zn  Zn17  1  0.902870  0.433870  0.101780  1.0  0.8201
  Zn  Zn18  1  0.902870  0.667910  0.566130  1.0  0.82
  Zn  Zn19  1  0.597130  0.433870  0.332090  1.0  0.8192
  Zn  Zn20  1  0.597130  0.667910  0.101780  1.0  0.8194
  Zn  Zn21  1  0.597130  0.898220  0.566130  1.0  0.8178
  Zn  Zn22  1  0.097130  0.566130  0.667910  1.0  0.8179
  Zn  Zn23  1  0.097130  0.332090  0.898220  1.0  0.8175
  Zn  Zn24  1  0.097130  0.101780  0.433870  1.0  0.8182
  H  H25  1  0.436500  0.885020  0.314140  1.0  0.0913
  H  H26  1  0.685970  0.003650  0.321470  1.0  0.0977
  H  H27  1  0.591690  0.914640  0.220810  1.0  0.0962
  H  H28  1  0.511420  0.796500  0.347370  1.0  0.0903
  H  H29  1  0.436500  0.429120  0.114980  1.0  0.0928
  H  H30  1  0.685970  0.317820  0.996350  1.0  0.0934
  H  H31  1  0.591690  0.306170  0.085360  1.0  0.0961
  H  H32  1  0.511420  0.550870  0.203500  1.0  0.0916
  H  H33  1  0.436500  0.685860  0.570880  1.0  0.091
  H  H34  1  0.685970  0.678530  0.682180  1.0  0.0925
  H  H35  1  0.591690  0.779190  0.693830  1.0  0.0929
  H  H36  1  0.511420  0.652630  0.449130  1.0  0.0953
  H  H37  1  0.936500  0.114980  0.685860  1.0  0.0916
  H  H38  1  0.185970  0.996350  0.678530  1.0  0.094
  H  H39  1  0.091690  0.085360  0.779190  1.0  0.0943
  H  H40  1  0.011420  0.203500  0.652630  1.0  0.0933
  H  H41  1  0.936500  0.570880  0.885020  1.0  0.0928
  H  H42  1  0.185970  0.682180  0.003650  1.0  0.0934
  H  H43  1  0.091690  0.693830  0.914640  1.0  0.0946
  H  H44  1  0.011420  0.449130  0.796500  1.0  0.0972
  H  H45  1  0.936500  0.314140  0.429120  1.0  0.0902
  H  H46  1  0.185970  0.321470  0.317820  1.0  0.0929
  H  H47  1  0.091690  0.220810  0.306170  1.0  0.0937
  H  H48  1  0.011420  0.347370  0.550870  1.0  0.0889
  H  H49  1  0.563500  0.570880  0.685860  1.0  0.0933
  H  H50  1  0.314030  0.682180  0.678530  1.0  0.0943
  H  H51  1  0.408310  0.693830  0.779190  1.0  0.0979
  H  H52  1  0.488580  0.449130  0.652630  1.0  0.092
  H  H53  1  0.563500  0.314140  0.885020  1.0  0.0928
  H  H54  1  0.314030  0.321470  0.003650  1.0  0.0936
  H  H55  1  0.408310  0.220810  0.914640  1.0  0.0957
  H  H56  1  0.488580  0.347370  0.796500  1.0  0.095
  H  H57  1  0.563500  0.114980  0.429120  1.0  0.0917
  H  H58  1  0.314030  0.996350  0.317820  1.0  0.097
  H  H59  1  0.408310  0.085360  0.306170  1.0  0.0961
  H  H60  1  0.488580  0.203500  0.550870  1.0  0.0903
  H  H61  1  0.063500  0.429120  0.314140  1.0  0.0915
  H  H62  1  0.814030  0.317820  0.321470  1.0  0.0929
  H  H63  1  0.908310  0.306170  0.220810  1.0  0.094
  H  H64  1  0.988580  0.550870  0.347370  1.0  0.089
  H  H65  1  0.063500  0.685860  0.114980  1.0  0.0918
  H  H66  1  0.814030  0.678530  0.996350  1.0  0.0927
  H  H67  1  0.908310  0.779190  0.085360  1.0  0.0919
  H  H68  1  0.988580  0.652630  0.203500  1.0  0.091
  H  H69  1  0.063500  0.885020  0.570880  1.0  0.0925
  H  H70  1  0.814030  0.003650  0.682180  1.0  0.0931
  H  H71  1  0.908310  0.914640  0.693830  1.0  0.0977
  H  H72  1  0.988580  0.796500  0.449130  1.0  0.0974
  H  H73  1  0.563500  0.114980  0.685860  1.0  0.0889
  H  H74  1  0.314030  0.996350  0.678530  1.0  0.0937
  H  H75  1  0.408310  0.085360  0.779190  1.0  0.0933
  H  H76  1  0.488580  0.203500  0.652630  1.0  0.0918
  H  H77  1  0.563500  0.570880  0.885020  1.0  0.0875
  H  H78  1  0.314030  0.682180  0.003650  1.0  0.0947
  H  H79  1  0.408310  0.693830  0.914640  1.0  0.0923
  H  H80  1  0.488580  0.449130  0.796500  1.0  0.0962
  H  H81  1  0.563500  0.314140  0.429120  1.0  0.0916
  H  H82  1  0.314030  0.321470  0.317820  1.0  0.0956
  H  H83  1  0.408310  0.220810  0.306170  1.0  0.0904
  H  H84  1  0.488580  0.347370  0.550870  1.0  0.0903
  H  H85  1  0.063500  0.885020  0.314140  1.0  0.0908
  H  H86  1  0.814030  0.003650  0.321470  1.0  0.096
  H  H87  1  0.908310  0.914640  0.220810  1.0  0.0975
  H  H88  1  0.988580  0.796500  0.347370  1.0  0.0925
  H  H89  1  0.063500  0.429120  0.114980  1.0  0.092
  H  H90  1  0.814030  0.317820  0.996350  1.0  0.0968
  H  H91  1  0.908310  0.306170  0.085360  1.0  0.0993
  H  H92  1  0.988580  0.550870  0.203500  1.0  0.0894
  H  H93  1  0.063500  0.685860  0.570880  1.0  0.0878
  H  H94  1  0.814030  0.678530  0.682180  1.0  0.0923
  H  H95  1  0.908310  0.779190  0.693830  1.0  0.0914
  H  H96  1  0.988580  0.652630  0.449130  1.0  0.0913
  H  H97  1  0.436500  0.429120  0.314140  1.0  0.0936
  H  H98  1  0.685970  0.317820  0.321470  1.0  0.0936
  H  H99  1  0.591690  0.306170  0.220810  1.0  0.0928
  H  H100  1  0.511420  0.550870  0.347370  1.0  0.0906
  H  H101  1  0.436500  0.685860  0.114980  1.0  0.0937
  H  H102  1  0.685970  0.678530  0.996350  1.0  0.0931
  H  H103  1  0.591690  0.779190  0.085360  1.0  0.0914
  H  H104  1  0.511420  0.652630  0.203500  1.0  0.09
  H  H105  1  0.436500  0.885020  0.570880  1.0  0.0895
  H  H106  1  0.685970  0.003650  0.682180  1.0  0.0978
  H  H107  1  0.591690  0.914640  0.693830  1.0  0.0978
  H  H108  1  0.511420  0.796500  0.449130  1.0  0.0915
  H  H109  1  0.936500  0.570880  0.685860  1.0  0.0908
  H  H110  1  0.185970  0.682180  0.678530  1.0  0.0967
  H  H111  1  0.091690  0.693830  0.779190  1.0  0.0978
  H  H112  1  0.011420  0.449130  0.652630  1.0  0.0904
  H  H113  1  0.936500  0.314140  0.885020  1.0  0.0875
  H  H114  1  0.185970  0.321470  0.003650  1.0  0.0951
  H  H115  1  0.091690  0.220810  0.914640  1.0  0.0947
  H  H116  1  0.011420  0.347370  0.796500  1.0  0.0948
  H  H117  1  0.936500  0.114980  0.429120  1.0  0.0935
  H  H118  1  0.185970  0.996350  0.317820  1.0  0.0962
  H  H119  1  0.091690  0.085360  0.306170  1.0  0.0965
  H  H120  1  0.011420  0.203500  0.550870  1.0  0.0928
  H  H121  1  0.656330  0.782820  0.218670  1.0  0.0813
  H  H122  1  0.656330  0.435850  0.217180  1.0  0.0815
  H  H123  1  0.656330  0.781330  0.564150  1.0  0.0814
  H  H124  1  0.156330  0.217180  0.781330  1.0  0.0814
  H  H125  1  0.156330  0.564150  0.782820  1.0  0.0814
  H  H126  1  0.156330  0.218670  0.435850  1.0  0.0814
  H  H127  1  0.343670  0.564150  0.781330  1.0  0.0817
  H  H128  1  0.343670  0.218670  0.782820  1.0  0.0818
  H  H129  1  0.343670  0.217180  0.435850  1.0  0.0816
  H  H130  1  0.843670  0.435850  0.218670  1.0  0.0819
  H  H131  1  0.843670  0.781330  0.217180  1.0  0.0818
  H  H132  1  0.843670  0.782820  0.564150  1.0  0.0818
  H  H133  1  0.501690  0.998540  0.427690  1.0  0.0889
  H  H134  1  0.501690  0.429150  0.001460  1.0  0.0899
  H  H135  1  0.501690  0.572310  0.570850  1.0  0.0895
  H  H136  1  0.001690  0.001460  0.572310  1.0  0.0898
  H  H137  1  0.001690  0.570850  0.998540  1.0  0.0894
  H  H138  1  0.001690  0.427690  0.429150  1.0  0.0895
  H  H139  1  0.498310  0.001460  0.572310  1.0  0.0899
  H  H140  1  0.498310  0.570850  0.998540  1.0  0.0897
  H  H141  1  0.498310  0.427690  0.429150  1.0  0.0897
  H  H142  1  0.998310  0.998540  0.427690  1.0  0.0892
  H  H143  1  0.998310  0.429150  0.001460  1.0  0.0899
  H  H144  1  0.998310  0.572310  0.570850  1.0  0.0897
  H  H145  1  0.326470  0.836920  0.249480  1.0  0.0892
  H  H146  1  0.560820  0.982350  0.170340  1.0  0.1136
  H  H147  1  0.326470  0.412560  0.163080  1.0  0.0898
  H  H148  1  0.560820  0.187990  0.017650  1.0  0.1153
  H  H149  1  0.826470  0.249480  0.412560  1.0  0.0905
  H  H150  1  0.437390  0.810430  0.829400  1.0  0.1159
  H  H151  1  0.437390  0.170600  0.981020  1.0  0.1094
  H  H152  1  0.673530  0.163080  0.412560  1.0  0.0892
  H  H153  1  0.439180  0.017650  0.187990  1.0  0.1111
  H  H154  1  0.173530  0.412560  0.249480  1.0  0.09
  H  H155  1  0.173530  0.750520  0.163080  1.0  0.0916
  H  H156  1  0.939180  0.982350  0.812010  1.0  0.1145
  H  H157  1  0.670960  0.159410  0.746540  1.0  0.0828
  H  H158  1  0.670960  0.587130  0.840590  1.0  0.0823
  H  H159  1  0.939180  0.982350  0.170340  1.0  0.1161
  H  H160  1  0.939180  0.187990  0.017650  1.0  0.1064
  H  H161  1  0.170960  0.746540  0.587130  1.0  0.0829
  H  H162  1  0.329040  0.840590  0.587130  1.0  0.0807
  H  H163  1  0.560820  0.982350  0.812010  1.0  0.1057
  H  H164  1  0.829040  0.587130  0.746540  1.0  0.081
  H  H165  1  0.062610  0.810430  0.829400  1.0  0.1123
  H  H166  1  0.829040  0.253460  0.840590  1.0  0.084
  H  H167  1  0.062610  0.170600  0.981020  1.0  0.1134
  H  H168  1  0.060820  0.017650  0.187990  1.0  0.1161
  C  C169  1  0.498000  0.812000  0.239900  1.0  0.0535
  C  C170  1  0.434800  0.843100  0.268600  1.0  0.0533
  C  C171  1  0.378700  0.815700  0.234500  1.0  -0.0597
  C  C172  1  0.714900  0.966300  0.322700  1.0  -0.0158
  C  C173  1  0.526100  0.978400  0.294800  1.0  0.0668
  C  C174  1  0.554800  0.953500  0.237200  1.0  -0.0078
  C  C175  1  0.530600  0.983700  0.208400  1.0  -0.0912
  C  C176  1  0.537600  0.833900  0.388000  1.0  0.3354
  C  C177  1  0.498000  0.427900  0.188000  1.0  0.0537
  C  C178  1  0.434800  0.425500  0.156900  1.0  0.0569
  C  C179  1  0.378700  0.418800  0.184300  1.0  -0.0595
  C  C180  1  0.714900  0.356400  0.033700  1.0  -0.0223
  C  C181  1  0.526100  0.316400  0.021600  1.0  0.066
  C  C182  1  0.554800  0.283700  0.046500  1.0  -0.0033
  C  C183  1  0.530600  0.224700  0.016300  1.0  -0.0942
  C  C184  1  0.537600  0.554100  0.166100  1.0  0.3385
  C  C185  1  0.498000  0.760100  0.572100  1.0  0.0538
  C  C186  1  0.434800  0.731400  0.574500  1.0  0.0621
  C  C187  1  0.378700  0.765500  0.581200  1.0  -0.0123
  C  C188  1  0.714900  0.677300  0.643600  1.0  -0.0133
  C  C189  1  0.526100  0.705200  0.683600  1.0  0.0605
  C  C190  1  0.554800  0.762800  0.716300  1.0  0.0607
  C  C191  1  0.530600  0.791600  0.775300  1.0  -0.0725
  C  C192  1  0.537600  0.612000  0.445900  1.0  0.3356
  C  C193  1  0.998000  0.188000  0.760100  1.0  0.0543
  C  C194  1  0.934800  0.156900  0.731400  1.0  0.0616
  C  C195  1  0.878700  0.184300  0.765500  1.0  -0.0104
  C  C196  1  0.214900  0.033700  0.677300  1.0  -0.0186
  C  C197  1  0.026100  0.021600  0.705200  1.0  0.0607
  C  C198  1  0.054800  0.046500  0.762800  1.0  0.0626
  C  C199  1  0.030600  0.016300  0.791600  1.0  -0.0607
  C  C200  1  0.037600  0.166100  0.612000  1.0  0.3377
  C  C201  1  0.998000  0.572100  0.812000  1.0  0.0546
  C  C202  1  0.934800  0.574500  0.843100  1.0  0.0669
  C  C203  1  0.878700  0.581200  0.815700  1.0  -0.0043
  C  C204  1  0.214900  0.643600  0.966300  1.0  -0.0201
  C  C205  1  0.026100  0.683600  0.978400  1.0  0.0595
  C  C206  1  0.054800  0.716300  0.953500  1.0  0.0572
  C  C207  1  0.030600  0.775300  0.983700  1.0  -0.0539
  C  C208  1  0.037600  0.445900  0.833900  1.0  0.3404
  C  C209  1  0.998000  0.239900  0.427900  1.0  0.0538
  C  C210  1  0.934800  0.268600  0.425500  1.0  0.0512
  C  C211  1  0.878700  0.234500  0.418800  1.0  -0.0562
  C  C212  1  0.214900  0.322700  0.356400  1.0  -0.0151
  C  C213  1  0.026100  0.294800  0.316400  1.0  0.0601
  C  C214  1  0.054800  0.237200  0.283700  1.0  0.0555
  C  C215  1  0.030600  0.208400  0.224700  1.0  -0.045
  C  C216  1  0.037600  0.388000  0.554100  1.0  0.3316
  C  C217  1  0.502000  0.572100  0.760100  1.0  0.0547
  C  C218  1  0.565200  0.574500  0.731400  1.0  0.068
  C  C219  1  0.621300  0.581200  0.765500  1.0  -0.01
  C  C220  1  0.285100  0.643600  0.677300  1.0  -0.0181
  C  C221  1  0.473900  0.683600  0.705200  1.0  0.0606
  C  C222  1  0.445200  0.716300  0.762800  1.0  -0.0138
  C  C223  1  0.469400  0.775300  0.791600  1.0  -0.0387
  C  C224  1  0.462400  0.445900  0.612000  1.0  0.3426
  C  C225  1  0.502000  0.239900  0.812000  1.0  0.0548
  C  C226  1  0.565200  0.268600  0.843100  1.0  0.0626
  C  C227  1  0.621300  0.234500  0.815700  1.0  -0.0144
  C  C228  1  0.285100  0.322700  0.966300  1.0  -0.0142
  C  C229  1  0.473900  0.294800  0.978400  1.0  0.0654
  C  C230  1  0.445200  0.237200  0.953500  1.0  -0.0041
  C  C231  1  0.469400  0.208400  0.983700  1.0  -0.0955
  C  C232  1  0.462400  0.388000  0.833900  1.0  0.3373
  C  C233  1  0.502000  0.188000  0.427900  1.0  0.0549
  C  C234  1  0.565200  0.156900  0.425500  1.0  0.0495
  C  C235  1  0.621300  0.184300  0.418800  1.0  -0.0622
  C  C236  1  0.285100  0.033700  0.356400  1.0  -0.0211
  C  C237  1  0.473900  0.021600  0.316400  1.0  0.0651
  C  C238  1  0.445200  0.046500  0.283700  1.0  -0.0066
  C  C239  1  0.469400  0.016300  0.224700  1.0  -0.09
  C  C240  1  0.462400  0.166100  0.554100  1.0  0.3441
  C  C241  1  0.002000  0.427900  0.239900  1.0  0.0548
  C  C242  1  0.065200  0.425500  0.268600  1.0  0.0537
  C  C243  1  0.121300  0.418800  0.234500  1.0  -0.0603
  C  C244  1  0.785100  0.356400  0.322700  1.0  -0.0224
  C  C245  1  0.973900  0.316400  0.294800  1.0  0.0582
  C  C246  1  0.945200  0.283700  0.237200  1.0  0.0636
  C  C247  1  0.969400  0.224700  0.208400  1.0  -0.0419
  C  C248  1  0.962400  0.554100  0.388000  1.0  0.3442
  C  C249  1  0.002000  0.760100  0.188000  1.0  0.0549
  C  C250  1  0.065200  0.731400  0.156900  1.0  0.0485
  C  C251  1  0.121300  0.765500  0.184300  1.0  -0.0579
  C  C252  1  0.785100  0.677300  0.033700  1.0  -0.0156
  C  C253  1  0.973900  0.705200  0.021600  1.0  0.0588
  C  C254  1  0.945200  0.762800  0.046500  1.0  0.0582
  C  C255  1  0.969400  0.791600  0.016300  1.0  -0.0474
  C  C256  1  0.962400  0.612000  0.166100  1.0  0.3377
  C  C257  1  0.002000  0.812000  0.572100  1.0  0.0543
  C  C258  1  0.065200  0.843100  0.574500  1.0  0.0621
  C  C259  1  0.121300  0.815700  0.581200  1.0  -0.0131
  C  C260  1  0.785100  0.966300  0.643600  1.0  -0.0167
  C  C261  1  0.973900  0.978400  0.683600  1.0  0.0614
  C  C262  1  0.945200  0.953500  0.716300  1.0  -0.0142
  C  C263  1  0.969400  0.983700  0.775300  1.0  -0.0245
  C  C264  1  0.962400  0.833900  0.445900  1.0  0.3394
  C  C265  1  0.502000  0.188000  0.760100  1.0  0.0542
  C  C266  1  0.565200  0.156900  0.731400  1.0  0.0421
  C  C267  1  0.621300  0.184300  0.765500  1.0  -0.0481
  C  C268  1  0.285100  0.033700  0.677300  1.0  -0.0255
  C  C269  1  0.473900  0.021600  0.705200  1.0  0.0607
  C  C270  1  0.445200  0.046500  0.762800  1.0  0.0617
  C  C271  1  0.469400  0.016300  0.791600  1.0  -0.0563
  C  C272  1  0.462400  0.166100  0.612000  1.0  0.3408
  C  C273  1  0.502000  0.572100  0.812000  1.0  0.0546
  C  C274  1  0.565200  0.574500  0.843100  1.0  0.0469
  C  C275  1  0.621300  0.581200  0.815700  1.0  -0.0451
  C  C276  1  0.285100  0.643600  0.966300  1.0  -0.023
  C  C277  1  0.473900  0.683600  0.978400  1.0  0.0606
  C  C278  1  0.445200  0.716300  0.953500  1.0  0.0577
  C  C279  1  0.469400  0.775300  0.983700  1.0  -0.0573
  C  C280  1  0.462400  0.445900  0.833900  1.0  0.343
  C  C281  1  0.502000  0.239900  0.427900  1.0  0.0543
  C  C282  1  0.565200  0.268600  0.425500  1.0  0.0478
  C  C283  1  0.621300  0.234500  0.418800  1.0  -0.0158
  C  C284  1  0.285100  0.322700  0.356400  1.0  -0.0189
  C  C285  1  0.473900  0.294800  0.316400  1.0  0.0595
  C  C286  1  0.445200  0.237200  0.283700  1.0  0.0559
  C  C287  1  0.469400  0.208400  0.224700  1.0  -0.0509
  C  C288  1  0.462400  0.388000  0.554100  1.0  0.3364
  C  C289  1  0.002000  0.812000  0.239900  1.0  0.0543
  C  C290  1  0.065200  0.843100  0.268600  1.0  0.0493
  C  C291  1  0.121300  0.815700  0.234500  1.0  -0.016
  C  C292  1  0.785100  0.966300  0.322700  1.0  -0.0201
  C  C293  1  0.973900  0.978400  0.294800  1.0  0.0665
  C  C294  1  0.945200  0.953500  0.237200  1.0  -0.0072
  C  C295  1  0.969400  0.983700  0.208400  1.0  -0.0877
  C  C296  1  0.962400  0.833900  0.388000  1.0  0.3388
  C  C297  1  0.002000  0.427900  0.188000  1.0  0.0546
  C  C298  1  0.065200  0.425500  0.156900  1.0  0.0534
  C  C299  1  0.121300  0.418800  0.184300  1.0  -0.0165
  C  C300  1  0.785100  0.356400  0.033700  1.0  -0.0274
  C  C301  1  0.973900  0.316400  0.021600  1.0  0.0656
  C  C302  1  0.945200  0.283700  0.046500  1.0  -0.0043
  C  C303  1  0.969400  0.224700  0.016300  1.0  -0.0941
  C  C304  1  0.962400  0.554100  0.166100  1.0  0.3431
  C  C305  1  0.002000  0.760100  0.572100  1.0  0.0541
  C  C306  1  0.065200  0.731400  0.574500  1.0  0.0422
  C  C307  1  0.121300  0.765500  0.581200  1.0  -0.0472
  C  C308  1  0.785100  0.677300  0.643600  1.0  -0.0186
  C  C309  1  0.973900  0.705200  0.683600  1.0  0.0606
  C  C310  1  0.945200  0.762800  0.716300  1.0  0.0601
  C  C311  1  0.969400  0.791600  0.775300  1.0  -0.0737
  C  C312  1  0.962400  0.612000  0.445900  1.0  0.3373
  C  C313  1  0.498000  0.427900  0.239900  1.0  0.0538
  C  C314  1  0.434800  0.425500  0.268600  1.0  0.0528
  C  C315  1  0.378700  0.418800  0.234500  1.0  -0.0096
  C  C316  1  0.714900  0.356400  0.322700  1.0  -0.0269
  C  C317  1  0.526100  0.316400  0.294800  1.0  0.0593
  C  C318  1  0.554800  0.283700  0.237200  1.0  0.0627
  C  C319  1  0.530600  0.224700  0.208400  1.0  -0.0478
  C  C320  1  0.537600  0.554100  0.388000  1.0  0.342
  C  C321  1  0.498000  0.760100  0.188000  1.0  0.0536
  C  C322  1  0.434800  0.731400  0.156900  1.0  0.0471
  C  C323  1  0.378700  0.765500  0.184300  1.0  -0.0133
  C  C324  1  0.714900  0.677300  0.033700  1.0  -0.0186
  C  C325  1  0.526100  0.705200  0.021600  1.0  0.06
  C  C326  1  0.554800  0.762800  0.046500  1.0  0.0579
  C  C327  1  0.530600  0.791600  0.016300  1.0  -0.0502
  C  C328  1  0.537600  0.612000  0.166100  1.0  0.333
  C  C329  1  0.498000  0.812000  0.572100  1.0  0.0527
  C  C330  1  0.434800  0.843100  0.574500  1.0  0.0469
  C  C331  1  0.378700  0.815700  0.581200  1.0  -0.0437
  C  C332  1  0.714900  0.966300  0.643600  1.0  -0.0219
  C  C333  1  0.526100  0.978400  0.683600  1.0  0.063
  C  C334  1  0.554800  0.953500  0.716300  1.0  -0.0126
  C  C335  1  0.530600  0.983700  0.775300  1.0  -0.0289
  C  C336  1  0.537600  0.833900  0.445900  1.0  0.336
  C  C337  1  0.998000  0.572100  0.760100  1.0  0.0531
  C  C338  1  0.934800  0.574500  0.731400  1.0  0.0509
  C  C339  1  0.878700  0.581200  0.765500  1.0  -0.0437
  C  C340  1  0.214900  0.643600  0.677300  1.0  -0.0218
  C  C341  1  0.026100  0.683600  0.705200  1.0  0.0621
  C  C342  1  0.054800  0.716300  0.762800  1.0  -0.0109
  C  C343  1  0.030600  0.775300  0.791600  1.0  -0.0365
  C  C344  1  0.037600  0.445900  0.612000  1.0  0.3378
  C  C345  1  0.998000  0.239900  0.812000  1.0  0.0533
  C  C346  1  0.934800  0.268600  0.843100  1.0  0.0451
  C  C347  1  0.878700  0.234500  0.815700  1.0  -0.044
  C  C348  1  0.214900  0.322700  0.966300  1.0  -0.0166
  C  C349  1  0.026100  0.294800  0.978400  1.0  0.0666
  C  C350  1  0.054800  0.237200  0.953500  1.0  -0.004
  C  C351  1  0.030600  0.208400  0.983700  1.0  -0.0963
  C  C352  1  0.037600  0.388000  0.833900  1.0  0.3351
  C  C353  1  0.998000  0.188000  0.427900  1.0  0.0539
  C  C354  1  0.934800  0.156900  0.425500  1.0  0.0468
  C  C355  1  0.878700  0.184300  0.418800  1.0  -0.0108
  C  C356  1  0.214900  0.033700  0.356400  1.0  -0.0239
  C  C357  1  0.026100  0.021600  0.316400  1.0  0.0654
  C  C358  1  0.054800  0.046500  0.283700  1.0  -0.0074
  C  C359  1  0.030600  0.016300  0.224700  1.0  -0.0892
  C  C360  1  0.037600  0.166100  0.554100  1.0  0.3413
  C  C361  1  0.598600  0.783750  0.216250  1.0  0.298
  C  C362  1  0.598600  0.432500  0.216250  1.0  0.298
  C  C363  1  0.598600  0.783750  0.567500  1.0  0.2982
  C  C364  1  0.098600  0.216250  0.783750  1.0  0.2987
  C  C365  1  0.098600  0.567500  0.783750  1.0  0.2979
  C  C366  1  0.098600  0.216250  0.432500  1.0  0.2981
  C  C367  1  0.401400  0.567500  0.783750  1.0  0.2936
  C  C368  1  0.401400  0.216250  0.783750  1.0  0.294
  C  C369  1  0.401400  0.216250  0.432500  1.0  0.2938
  C  C370  1  0.901400  0.432500  0.216250  1.0  0.2938
  C  C371  1  0.901400  0.783750  0.216250  1.0  0.2938
  C  C372  1  0.901400  0.783750  0.567500  1.0  0.2939
  C  C373  1  0.750000  0.890800  0.322600  1.0  0.135
  C  C374  1  0.750000  0.431800  0.109200  1.0  0.1356
  C  C375  1  0.750000  0.677400  0.568200  1.0  0.1376
  C  C376  1  0.250000  0.109200  0.677400  1.0  0.1361
  C  C377  1  0.250000  0.568200  0.890800  1.0  0.1353
  C  C378  1  0.250000  0.322600  0.431800  1.0  0.1388
  C  C379  1  0.250000  0.568200  0.677400  1.0  0.1357
  C  C380  1  0.250000  0.322600  0.890800  1.0  0.1378
  C  C381  1  0.250000  0.109200  0.431800  1.0  0.1361
  C  C382  1  0.750000  0.431800  0.322600  1.0  0.1358
  C  C383  1  0.750000  0.677400  0.109200  1.0  0.1393
  C  C384  1  0.750000  0.890800  0.568200  1.0  0.1358
  C  C385  1  0.500000  0.000000  0.384600  1.0  0.3188
  C  C386  1  0.500000  0.384600  0.000000  1.0  0.3181
  C  C387  1  0.500000  0.615400  0.615400  1.0  0.3174
  C  C388  1  0.000000  0.000000  0.615400  1.0  0.318
  C  C389  1  0.000000  0.615400  0.000000  1.0  0.3195
  C  C390  1  0.000000  0.384600  0.384600  1.0  0.3194
  C  C391  1  0.500000  0.000000  0.615400  1.0  0.3183
  C  C392  1  0.500000  0.615400  0.000000  1.0  0.3198
  C  C393  1  0.500000  0.384600  0.384600  1.0  0.3195
  C  C394  1  0.000000  0.000000  0.384600  1.0  0.319
  C  C395  1  0.000000  0.384600  0.000000  1.0  0.3179
  C  C396  1  0.000000  0.615400  0.615400  1.0  0.3178
  C  C397  1  0.592700  0.909000  0.454500  1.0  0.439
  C  C398  1  0.592700  0.545500  0.091000  1.0  0.4392
  C  C399  1  0.592700  0.545500  0.454500  1.0  0.4384
  C  C400  1  0.092700  0.091000  0.545500  1.0  0.4383
  C  C401  1  0.092700  0.454500  0.909000  1.0  0.4392
  C  C402  1  0.092700  0.454500  0.545500  1.0  0.439
  C  C403  1  0.407300  0.454500  0.545500  1.0  0.4383
  C  C404  1  0.407300  0.454500  0.909000  1.0  0.439
  C  C405  1  0.407300  0.091000  0.545500  1.0  0.4387
  C  C406  1  0.907300  0.545500  0.454500  1.0  0.4386
  C  C407  1  0.907300  0.545500  0.091000  1.0  0.4389
  C  C408  1  0.907300  0.909000  0.454500  1.0  0.4384
  Br  Br409  1  0.298900  0.716400  0.584000  1.0  -0.2437
  Br  Br410  1  0.554100  0.868700  0.831600  1.0  -0.0892
  Br  Br411  1  0.798900  0.132400  0.716400  1.0  -0.2431
  Br  Br412  1  0.054100  0.037100  0.868700  1.0  -0.0781
  Br  Br413  1  0.798900  0.584000  0.867600  1.0  -0.2453
  Br  Br414  1  0.054100  0.831600  0.962900  1.0  -0.1714
  Br  Br415  1  0.054100  0.131300  0.168400  1.0  -0.1668
  Br  Br416  1  0.701100  0.584000  0.716400  1.0  -0.2426
  Br  Br417  1  0.701100  0.283600  0.867600  1.0  -0.2466
  Br  Br418  1  0.945900  0.168400  0.131300  1.0  -0.1686
  Br  Br419  1  0.945900  0.868700  0.037100  1.0  -0.1728
  Br  Br420  1  0.201100  0.867600  0.584000  1.0  -0.2424
  Br  Br421  1  0.445900  0.037100  0.868700  1.0  -0.076
  Br  Br422  1  0.445900  0.831600  0.962900  1.0  -0.1662
  Br  Br423  1  0.701100  0.283600  0.416000  1.0  -0.2332
  Br  Br424  1  0.445900  0.131300  0.168400  1.0  -0.1697
  Br  Br425  1  0.201100  0.867600  0.283600  1.0  -0.2352
  Br  Br426  1  0.201100  0.416000  0.132400  1.0  -0.2347
  Br  Br427  1  0.945900  0.868700  0.831600  1.0  -0.0879
  Br  Br428  1  0.298900  0.416000  0.283600  1.0  -0.2326
  Br  Br429  1  0.554100  0.168400  0.131300  1.0  -0.1703
  Br  Br430  1  0.298900  0.716400  0.132400  1.0  -0.2342
  Br  Br431  1  0.554100  0.868700  0.037100  1.0  -0.1735
  Br  Br432  1  0.798900  0.132400  0.416000  1.0  -0.2337
  N  N433  1  0.564100  0.828400  0.258900  1.0  -0.4599
  N  N434  1  0.691700  0.917800  0.324300  1.0  -0.4695
  N  N435  1  0.542100  0.963500  0.337900  1.0  -0.4803
  N  N436  1  0.573800  0.885600  0.399400  1.0  -0.4602
  N  N437  1  0.564100  0.430500  0.171600  1.0  -0.4597
  N  N438  1  0.691700  0.406500  0.082200  1.0  -0.4695
  N  N439  1  0.542100  0.374400  0.036500  1.0  -0.481
  N  N440  1  0.573800  0.513800  0.114400  1.0  -0.4592
  N  N441  1  0.564100  0.741100  0.569500  1.0  -0.4597
  N  N442  1  0.691700  0.675700  0.593500  1.0  -0.4699
  N  N443  1  0.542100  0.662100  0.625600  1.0  -0.4809
  N  N444  1  0.573800  0.600600  0.486200  1.0  -0.4601
  N  N445  1  0.064100  0.171600  0.741100  1.0  -0.4595
  N  N446  1  0.191700  0.082200  0.675700  1.0  -0.47
  N  N447  1  0.042100  0.036500  0.662100  1.0  -0.4813
  N  N448  1  0.073800  0.114400  0.600600  1.0  -0.4591
  N  N449  1  0.064100  0.569500  0.828400  1.0  -0.4584
  N  N450  1  0.191700  0.593500  0.917800  1.0  -0.4705
  N  N451  1  0.042100  0.625600  0.963500  1.0  -0.4818
  N  N452  1  0.073800  0.486200  0.885600  1.0  -0.46
  N  N453  1  0.064100  0.258900  0.430500  1.0  -0.4605
  N  N454  1  0.191700  0.324300  0.406500  1.0  -0.4704
  N  N455  1  0.042100  0.337900  0.374400  1.0  -0.4812
  N  N456  1  0.073800  0.399400  0.513800  1.0  -0.4602
  N  N457  1  0.435900  0.569500  0.741100  1.0  -0.46
  N  N458  1  0.308300  0.593500  0.675700  1.0  -0.4689
  N  N459  1  0.457900  0.625600  0.662100  1.0  -0.4721
  N  N460  1  0.426200  0.486200  0.600600  1.0  -0.462
  N  N461  1  0.435900  0.258900  0.828400  1.0  -0.4602
  N  N462  1  0.308300  0.324300  0.917800  1.0  -0.4692
  N  N463  1  0.457900  0.337900  0.963500  1.0  -0.4701
  N  N464  1  0.426200  0.399400  0.885600  1.0  -0.4629
  N  N465  1  0.435900  0.171600  0.430500  1.0  -0.4606
  N  N466  1  0.308300  0.082200  0.406500  1.0  -0.4691
  N  N467  1  0.457900  0.036500  0.374400  1.0  -0.4709
  N  N468  1  0.426200  0.114400  0.513800  1.0  -0.4626
  N  N469  1  0.935900  0.430500  0.258900  1.0  -0.4594
  N  N470  1  0.808300  0.406500  0.324300  1.0  -0.4695
  N  N471  1  0.957900  0.374400  0.337900  1.0  -0.4716
  N  N472  1  0.926200  0.513800  0.399400  1.0  -0.462
  N  N473  1  0.935900  0.741100  0.171600  1.0  -0.4606
  N  N474  1  0.808300  0.675700  0.082200  1.0  -0.469
  N  N475  1  0.957900  0.662100  0.036500  1.0  -0.4718
  N  N476  1  0.926200  0.600600  0.114400  1.0  -0.4635
  N  N477  1  0.935900  0.828400  0.569500  1.0  -0.46
  N  N478  1  0.808300  0.917800  0.593500  1.0  -0.4697
  N  N479  1  0.957900  0.963500  0.625600  1.0  -0.471
  N  N480  1  0.926200  0.885600  0.486200  1.0  -0.4622
  N  N481  1  0.435900  0.171600  0.741100  1.0  -0.4603
  N  N482  1  0.308300  0.082200  0.675700  1.0  -0.4752
  N  N483  1  0.457900  0.036500  0.662100  1.0  -0.4832
  N  N484  1  0.426200  0.114400  0.600600  1.0  -0.4595
  N  N485  1  0.435900  0.569500  0.828400  1.0  -0.4591
  N  N486  1  0.308300  0.593500  0.917800  1.0  -0.4757
  N  N487  1  0.457900  0.625600  0.963500  1.0  -0.4832
  N  N488  1  0.426200  0.486200  0.885600  1.0  -0.4602
  N  N489  1  0.435900  0.258900  0.430500  1.0  -0.4604
  N  N490  1  0.308300  0.324300  0.406500  1.0  -0.4756
  N  N491  1  0.457900  0.337900  0.374400  1.0  -0.4831
  N  N492  1  0.426200  0.399400  0.513800  1.0  -0.4605
  N  N493  1  0.935900  0.828400  0.258900  1.0  -0.46
  N  N494  1  0.808300  0.917800  0.324300  1.0  -0.4751
  N  N495  1  0.957900  0.963500  0.337900  1.0  -0.4826
  N  N496  1  0.926200  0.885600  0.399400  1.0  -0.4605
  N  N497  1  0.935900  0.430500  0.171600  1.0  -0.4599
  N  N498  1  0.808300  0.406500  0.082200  1.0  -0.4752
  N  N499  1  0.957900  0.374400  0.036500  1.0  -0.4827
  N  N500  1  0.926200  0.513800  0.114400  1.0  -0.4596
  N  N501  1  0.935900  0.741100  0.569500  1.0  -0.4603
  N  N502  1  0.808300  0.675700  0.593500  1.0  -0.4757
  N  N503  1  0.957900  0.662100  0.625600  1.0  -0.4824
  N  N504  1  0.926200  0.600600  0.486200  1.0  -0.4608
  N  N505  1  0.564100  0.430500  0.258900  1.0  -0.4585
  N  N506  1  0.691700  0.406500  0.324300  1.0  -0.4767
  N  N507  1  0.542100  0.374400  0.337900  1.0  -0.4701
  N  N508  1  0.573800  0.513800  0.399400  1.0  -0.4622
  N  N509  1  0.564100  0.741100  0.171600  1.0  -0.4598
  N  N510  1  0.691700  0.675700  0.082200  1.0  -0.4776
  N  N511  1  0.542100  0.662100  0.036500  1.0  -0.4701
  N  N512  1  0.573800  0.600600  0.114400  1.0  -0.4637
  N  N513  1  0.564100  0.828400  0.569500  1.0  -0.4598
  N  N514  1  0.691700  0.917800  0.593500  1.0  -0.4762
  N  N515  1  0.542100  0.963500  0.625600  1.0  -0.469
  N  N516  1  0.573800  0.885600  0.486200  1.0  -0.462
  N  N517  1  0.064100  0.569500  0.741100  1.0  -0.4598
  N  N518  1  0.191700  0.593500  0.675700  1.0  -0.476
  N  N519  1  0.042100  0.625600  0.662100  1.0  -0.4701
  N  N520  1  0.073800  0.486200  0.600600  1.0  -0.462
  N  N521  1  0.064100  0.258900  0.828400  1.0  -0.4601
  N  N522  1  0.191700  0.324300  0.917800  1.0  -0.4765
  N  N523  1  0.042100  0.337900  0.963500  1.0  -0.4685
  N  N524  1  0.073800  0.399400  0.885600  1.0  -0.4625
  N  N525  1  0.064100  0.171600  0.430500  1.0  -0.4596
  N  N526  1  0.191700  0.082200  0.406500  1.0  -0.4767
  N  N527  1  0.042100  0.036500  0.374400  1.0  -0.4689
  N  N528  1  0.073800  0.114400  0.513800  1.0  -0.4627
  N  N529  1  0.750000  0.836500  0.323800  1.0  0.5896
  N  N530  1  0.750000  0.487300  0.163500  1.0  0.59
  N  N531  1  0.750000  0.676200  0.512700  1.0  0.5983
  N  N532  1  0.250000  0.163500  0.676200  1.0  0.5908
  N  N533  1  0.250000  0.512700  0.836500  1.0  0.5887
  N  N534  1  0.250000  0.323800  0.487300  1.0  0.5956
  N  N535  1  0.250000  0.512700  0.676200  1.0  0.5888
  N  N536  1  0.250000  0.323800  0.836500  1.0  0.5985
  N  N537  1  0.250000  0.163500  0.487300  1.0  0.5902
  N  N538  1  0.750000  0.487300  0.323800  1.0  0.5904
  N  N539  1  0.750000  0.676200  0.163500  1.0  0.5954
  N  N540  1  0.750000  0.836500  0.512700  1.0  0.5903
  N  N541  1  0.627300  0.960800  0.480400  1.0  0.6058
  N  N542  1  0.627300  0.519600  0.039200  1.0  0.6071
  N  N543  1  0.627300  0.519600  0.480400  1.0  0.6076
  N  N544  1  0.127300  0.039200  0.519600  1.0  0.6042
  N  N545  1  0.127300  0.480400  0.960800  1.0  0.6087
  N  N546  1  0.127300  0.480400  0.519600  1.0  0.6065
  N  N547  1  0.372700  0.480400  0.519600  1.0  0.6074
  N  N548  1  0.372700  0.480400  0.960800  1.0  0.6098
  N  N549  1  0.372700  0.039200  0.519600  1.0  0.6042
  N  N550  1  0.872700  0.519600  0.480400  1.0  0.6079
  N  N551  1  0.872700  0.519600  0.039200  1.0  0.6079
  N  N552  1  0.872700  0.960800  0.480400  1.0  0.6074
  O  O553  1  0.695600  0.814300  0.325000  1.0  -0.4779
  O  O554  1  0.639800  0.985000  0.450700  1.0  -0.4395
  O  O555  1  0.695600  0.510700  0.185700  1.0  -0.4778
  O  O556  1  0.639800  0.465700  0.015000  1.0  -0.4491
  O  O557  1  0.695600  0.675000  0.489300  1.0  -0.4786
  O  O558  1  0.639800  0.549300  0.534300  1.0  -0.4478
  O  O559  1  0.195600  0.185700  0.675000  1.0  -0.4793
  O  O560  1  0.139800  0.015000  0.549300  1.0  -0.4483
  O  O561  1  0.195600  0.489300  0.814300  1.0  -0.4766
  O  O562  1  0.139800  0.534300  0.985000  1.0  -0.442
  O  O563  1  0.195600  0.325000  0.510700  1.0  -0.4779
  O  O564  1  0.139800  0.450700  0.465700  1.0  -0.4371
  O  O565  1  0.304400  0.489300  0.675000  1.0  -0.4767
  O  O566  1  0.360200  0.534300  0.549300  1.0  -0.4596
  O  O567  1  0.304400  0.325000  0.814300  1.0  -0.4775
  O  O568  1  0.360200  0.450700  0.985000  1.0  -0.4557
  O  O569  1  0.304400  0.185700  0.510700  1.0  -0.4784
  O  O570  1  0.360200  0.015000  0.465700  1.0  -0.4467
  O  O571  1  0.804400  0.510700  0.325000  1.0  -0.478
  O  O572  1  0.860200  0.465700  0.450700  1.0  -0.4457
  O  O573  1  0.804400  0.675000  0.185700  1.0  -0.479
  O  O574  1  0.860200  0.549300  0.015000  1.0  -0.4587
  O  O575  1  0.804400  0.814300  0.489300  1.0  -0.478
  O  O576  1  0.860200  0.985000  0.534300  1.0  -0.4615
  O  O577  1  0.304400  0.185700  0.675000  1.0  -0.4794
  O  O578  1  0.360200  0.015000  0.549300  1.0  -0.4434
  O  O579  1  0.304400  0.489300  0.814300  1.0  -0.4772
  O  O580  1  0.360200  0.534300  0.985000  1.0  -0.4486
  O  O581  1  0.304400  0.325000  0.510700  1.0  -0.4789
  O  O582  1  0.360200  0.450700  0.465700  1.0  -0.4468
  O  O583  1  0.804400  0.814300  0.325000  1.0  -0.478
  O  O584  1  0.860200  0.985000  0.450700  1.0  -0.4494
  O  O585  1  0.804400  0.510700  0.185700  1.0  -0.4779
  O  O586  1  0.860200  0.465700  0.015000  1.0  -0.4423
  O  O587  1  0.804400  0.675000  0.489300  1.0  -0.4781
  O  O588  1  0.860200  0.549300  0.534300  1.0  -0.4429
  O  O589  1  0.695600  0.510700  0.325000  1.0  -0.4766
  O  O590  1  0.639800  0.465700  0.450700  1.0  -0.4586
  O  O591  1  0.695600  0.675000  0.185700  1.0  -0.4769
  O  O592  1  0.639800  0.549300  0.015000  1.0  -0.4563
  O  O593  1  0.695600  0.814300  0.489300  1.0  -0.4761
  O  O594  1  0.639800  0.985000  0.534300  1.0  -0.4594
  O  O595  1  0.195600  0.489300  0.675000  1.0  -0.4748
  O  O596  1  0.139800  0.534300  0.549300  1.0  -0.4574
  O  O597  1  0.195600  0.325000  0.814300  1.0  -0.477
  O  O598  1  0.139800  0.450700  0.985000  1.0  -0.4595
  O  O599  1  0.195600  0.185700  0.510700  1.0  -0.4769
  O  O600  1  0.139800  0.015000  0.465700  1.0  -0.4592
