# generated using pymatgen
data_FeAg2H8(C2N)8
_symmetry_space_group_name_H-M   'P 1'
_cell_length_a   26.87610000
_cell_length_b   26.87610000
_cell_length_c   10.04560000
_cell_angle_alpha   90.00000000
_cell_angle_beta   90.00000000
_cell_angle_gamma   120.00000000
_symmetry_Int_Tables_number   1
_chemical_formula_structural   FeAg2H8(C2N)8
_chemical_formula_sum   'Fe9 Ag18 H72 C144 N72'
_cell_volume   6284.04099555
_cell_formula_units_Z   9
loop_
 _symmetry_equiv_pos_site_id
 _symmetry_equiv_pos_as_xyz
  1  'x, y, z'
loop_
 _atom_site_type_symbol
 _atom_site_label
 _atom_site_symmetry_multiplicity
 _atom_site_fract_x
 _atom_site_fract_y
 _atom_site_fract_z
 _atom_site_occupancy
 _atom_site_charge
  Fe  Fe1  1  0.500000  0.000000  0.000000  1.0  0.5093
  Fe  Fe2  1  0.166670  0.333333  0.333333  1.0  0.5264
  Fe  Fe3  1  0.833330  0.666667  0.666667  1.0  0.5262
  Fe  Fe4  1  0.000000  0.500000  0.000000  1.0  0.5093
  Fe  Fe5  1  0.666667  0.833330  0.333333  1.0  0.5268
  Fe  Fe6  1  0.333333  0.166670  0.666667  1.0  0.5257
  Fe  Fe7  1  0.500000  0.500000  0.000000  1.0  0.5093
  Fe  Fe8  1  0.166670  0.833330  0.333333  1.0  0.5268
  Fe  Fe9  1  0.833330  0.166670  0.666667  1.0  0.5257
  Ag  Ag10  1  0.666667  0.035040  0.333333  1.0  0.3735
  Ag  Ag11  1  0.964960  0.631620  0.333333  1.0  0.3734
  Ag  Ag12  1  0.368380  0.333333  0.333333  1.0  0.3735
  Ag  Ag13  1  0.035040  0.666667  0.666667  1.0  0.3734
  Ag  Ag14  1  0.701710  0.000000  0.000000  1.0  0.3734
  Ag  Ag15  1  0.631620  0.964960  0.666667  1.0  0.3734
  Ag  Ag16  1  0.298290  0.298290  0.000000  1.0  0.3763
  Ag  Ag17  1  0.333333  0.368380  0.666667  1.0  0.3734
  Ag  Ag18  1  0.000000  0.701710  0.000000  1.0  0.3735
  Ag  Ag19  1  0.333333  0.964960  0.666667  1.0  0.3733
  Ag  Ag20  1  0.000000  0.298290  0.000000  1.0  0.3733
  Ag  Ag21  1  0.035040  0.368380  0.666667  1.0  0.3733
  Ag  Ag22  1  0.701710  0.701710  0.000000  1.0  0.3761
  Ag  Ag23  1  0.631620  0.666667  0.666667  1.0  0.373
  Ag  Ag24  1  0.298290  0.000000  0.000000  1.0  0.3732
  Ag  Ag25  1  0.964960  0.333333  0.333333  1.0  0.3731
  Ag  Ag26  1  0.368380  0.035040  0.333333  1.0  0.3733
  Ag  Ag27  1  0.666667  0.631620  0.333333  1.0  0.3732
  H  H28  1  0.520100  0.895900  0.005800  1.0  0.0998
  H  H29  1  0.473900  0.797900  0.008200  1.0  0.1393
  H  H30  1  0.186770  0.229230  0.339130  1.0  0.0998
  H  H31  1  0.140570  0.131230  0.341530  1.0  0.1417
  H  H32  1  0.853430  0.562570  0.672470  1.0  0.0998
  H  H33  1  0.807230  0.464570  0.674870  1.0  0.1393
  H  H34  1  0.104100  0.624200  0.005800  1.0  0.0989
  H  H35  1  0.202100  0.676000  0.008200  1.0  0.1363
  H  H36  1  0.770770  0.957530  0.339130  1.0  0.0989
  H  H37  1  0.868770  0.009330  0.341530  1.0  0.1363
  H  H38  1  0.437430  0.290870  0.672470  1.0  0.0989
  H  H39  1  0.535430  0.342670  0.674870  1.0  0.1363
  H  H40  1  0.375800  0.479900  0.005800  1.0  0.1001
  H  H41  1  0.324000  0.526100  0.008200  1.0  0.1405
  H  H42  1  0.042470  0.813230  0.339130  1.0  0.1001
  H  H43  1  0.990670  0.859430  0.341530  1.0  0.138
  H  H44  1  0.709130  0.146570  0.672470  1.0  0.1001
  H  H45  1  0.657330  0.192770  0.674870  1.0  0.1405
  H  H46  1  0.895900  0.520100  0.994200  1.0  0.0998
  H  H47  1  0.797900  0.473900  0.991800  1.0  0.1385
  H  H48  1  0.562570  0.853430  0.327530  1.0  0.0998
  H  H49  1  0.464570  0.807230  0.325130  1.0  0.1385
  H  H50  1  0.229230  0.186770  0.660870  1.0  0.0998
  H  H51  1  0.131230  0.140570  0.658470  1.0  0.1411
  H  H52  1  0.624200  0.104100  0.994200  1.0  0.0992
  H  H53  1  0.676000  0.202100  0.991800  1.0  0.1389
  H  H54  1  0.290870  0.437430  0.327530  1.0  0.0992
  H  H55  1  0.342670  0.535430  0.325130  1.0  0.1389
  H  H56  1  0.957530  0.770770  0.660870  1.0  0.0992
  H  H57  1  0.009330  0.868770  0.658470  1.0  0.1389
  H  H58  1  0.479900  0.375800  0.994200  1.0  0.0986
  H  H59  1  0.526100  0.324000  0.991800  1.0  0.1392
  H  H60  1  0.146570  0.709130  0.327530  1.0  0.0986
  H  H61  1  0.192770  0.657330  0.325130  1.0  0.1392
  H  H62  1  0.813230  0.042470  0.660870  1.0  0.0986
  H  H63  1  0.859430  0.990670  0.658470  1.0  0.1357
  H  H64  1  0.479900  0.104100  0.994200  1.0  0.0992
  H  H65  1  0.526100  0.202100  0.991800  1.0  0.1392
  H  H66  1  0.146570  0.437430  0.327530  1.0  0.0992
  H  H67  1  0.192770  0.535430  0.325130  1.0  0.1392
  H  H68  1  0.813230  0.770770  0.660870  1.0  0.0992
  H  H69  1  0.859430  0.868770  0.658470  1.0  0.1419
  H  H70  1  0.895900  0.375800  0.994200  1.0  0.0981
  H  H71  1  0.797900  0.324000  0.991800  1.0  0.1357
  H  H72  1  0.562570  0.709130  0.327530  1.0  0.0981
  H  H73  1  0.464570  0.657330  0.325130  1.0  0.1357
  H  H74  1  0.229230  0.042470  0.660870  1.0  0.0981
  H  H75  1  0.131230  0.990670  0.658470  1.0  0.1357
  H  H76  1  0.624200  0.520100  0.994200  1.0  0.0996
  H  H77  1  0.676000  0.473900  0.991800  1.0  0.1414
  H  H78  1  0.290870  0.853430  0.327530  1.0  0.0996
  H  H79  1  0.342670  0.807230  0.325130  1.0  0.1414
  H  H80  1  0.957530  0.186770  0.660870  1.0  0.0996
  H  H81  1  0.009330  0.140570  0.658470  1.0  0.1385
  H  H82  1  0.104100  0.479900  0.005800  1.0  0.1001
  H  H83  1  0.202100  0.526100  0.008200  1.0  0.138
  H  H84  1  0.770770  0.813230  0.339130  1.0  0.1001
  H  H85  1  0.868770  0.859430  0.341530  1.0  0.1405
  H  H86  1  0.437430  0.146570  0.672470  1.0  0.1001
  H  H87  1  0.535430  0.192770  0.674870  1.0  0.138
  H  H88  1  0.375800  0.895900  0.005800  1.0  0.0996
  H  H89  1  0.324000  0.797900  0.008200  1.0  0.1388
  H  H90  1  0.042470  0.229230  0.339130  1.0  0.0996
  H  H91  1  0.990670  0.131230  0.341530  1.0  0.1388
  H  H92  1  0.709130  0.562570  0.672470  1.0  0.0996
  H  H93  1  0.657330  0.464570  0.674870  1.0  0.1388
  H  H94  1  0.520100  0.624200  0.005800  1.0  0.0989
  H  H95  1  0.473900  0.676000  0.008200  1.0  0.14
  H  H96  1  0.186770  0.957530  0.339130  1.0  0.0989
  H  H97  1  0.140570  0.009330  0.341530  1.0  0.1362
  H  H98  1  0.853430  0.290870  0.672470  1.0  0.0989
  H  H99  1  0.807230  0.342670  0.674870  1.0  0.14
  C  C100  1  0.480150  0.875550  0.005300  1.0  0.1989
  C  C101  1  0.452790  0.816740  0.005900  1.0  -0.1209
  C  C102  1  0.595800  0.007900  0.213700  1.0  -0.0143
  C  C103  1  0.146820  0.208880  0.338630  1.0  0.1992
  C  C104  1  0.119460  0.150070  0.339230  1.0  -0.1215
  C  C105  1  0.262470  0.341230  0.547030  1.0  -0.0104
  C  C106  1  0.813480  0.542220  0.671970  1.0  0.1989
  C  C107  1  0.786120  0.483410  0.672570  1.0  -0.1209
  C  C108  1  0.929130  0.674570  0.880370  1.0  -0.0204
  C  C109  1  0.124450  0.604600  0.005300  1.0  0.1986
  C  C110  1  0.183260  0.636050  0.005900  1.0  -0.1211
  C  C111  1  0.992100  0.587900  0.213700  1.0  -0.016
  C  C112  1  0.791120  0.937930  0.338630  1.0  0.1983
  C  C113  1  0.849930  0.969380  0.339230  1.0  -0.1205
  C  C114  1  0.658770  0.921230  0.547030  1.0  -0.0219
  C  C115  1  0.457780  0.271270  0.671970  1.0  0.1986
  C  C116  1  0.516590  0.302720  0.672570  1.0  -0.121
  C  C117  1  0.325430  0.254570  0.880370  1.0  -0.0108
  C  C118  1  0.395400  0.519850  0.005300  1.0  0.1976
  C  C119  1  0.363950  0.547210  0.005900  1.0  -0.1203
  C  C120  1  0.412100  0.404200  0.213700  1.0  -0.0111
  C  C121  1  0.062070  0.853180  0.338630  1.0  0.1976
  C  C122  1  0.030620  0.880540  0.339230  1.0  -0.1202
  C  C123  1  0.078770  0.737530  0.547030  1.0  -0.0115
  C  C124  1  0.728730  0.186520  0.671970  1.0  0.1976
  C  C125  1  0.697280  0.213880  0.672570  1.0  -0.1203
  C  C126  1  0.745430  0.070870  0.880370  1.0  -0.0111
  C  C127  1  0.875550  0.480150  0.994700  1.0  0.1983
  C  C128  1  0.816740  0.452790  0.994100  1.0  -0.1197
  C  C129  1  0.007900  0.595800  0.786300  1.0  -0.0157
  C  C130  1  0.542220  0.813480  0.328030  1.0  0.1983
  C  C131  1  0.483410  0.786120  0.327430  1.0  -0.1197
  C  C132  1  0.674570  0.929130  0.119630  1.0  -0.0202
  C  C133  1  0.208880  0.146820  0.661370  1.0  0.1987
  C  C134  1  0.150070  0.119460  0.660770  1.0  -0.1216
  C  C135  1  0.341230  0.262470  0.452970  1.0  -0.0121
  C  C136  1  0.604600  0.124450  0.994700  1.0  0.1995
  C  C137  1  0.636050  0.183260  0.994100  1.0  -0.1225
  C  C138  1  0.587900  0.992100  0.786300  1.0  -0.0152
  C  C139  1  0.271270  0.457780  0.328030  1.0  0.1995
  C  C140  1  0.302720  0.516590  0.327430  1.0  -0.1224
  C  C141  1  0.254570  0.325430  0.119630  1.0  -0.0107
  C  C142  1  0.937930  0.791120  0.661370  1.0  0.199
  C  C143  1  0.969380  0.849930  0.660770  1.0  -0.1205
  C  C144  1  0.921230  0.658770  0.452970  1.0  -0.0195
  C  C145  1  0.519850  0.395400  0.994700  1.0  0.1989
  C  C146  1  0.547210  0.363950  0.994100  1.0  -0.1221
  C  C147  1  0.404200  0.412100  0.786300  1.0  -0.0112
  C  C148  1  0.186520  0.728730  0.328030  1.0  0.1989
  C  C149  1  0.213880  0.697280  0.327430  1.0  -0.1221
  C  C150  1  0.070870  0.745430  0.119630  1.0  -0.0111
  C  C151  1  0.853180  0.062070  0.661370  1.0  0.1989
  C  C152  1  0.880540  0.030620  0.660770  1.0  -0.1219
  C  C153  1  0.737530  0.078770  0.452970  1.0  -0.0115
  C  C154  1  0.519850  0.124450  0.994700  1.0  0.1988
  C  C155  1  0.547210  0.183260  0.994100  1.0  -0.1217
  C  C156  1  0.404200  0.992100  0.786300  1.0  -0.0141
  C  C157  1  0.186520  0.457780  0.328030  1.0  0.1988
  C  C158  1  0.213880  0.516590  0.327430  1.0  -0.1217
  C  C159  1  0.070870  0.325430  0.119630  1.0  -0.0187
  C  C160  1  0.853180  0.791120  0.661370  1.0  0.1992
  C  C161  1  0.880540  0.849930  0.660770  1.0  -0.1226
  C  C162  1  0.737530  0.658770  0.452970  1.0  -0.0102
  C  C163  1  0.875550  0.395400  0.994700  1.0  0.1995
  C  C164  1  0.816740  0.363950  0.994100  1.0  -0.123
  C  C165  1  0.007900  0.412100  0.786300  1.0  -0.0164
  C  C166  1  0.542220  0.728730  0.328030  1.0  0.1995
  C  C167  1  0.483410  0.697280  0.327430  1.0  -0.123
  C  C168  1  0.674570  0.745430  0.119630  1.0  -0.0115
  C  C169  1  0.208880  0.062070  0.661370  1.0  0.1988
  C  C170  1  0.150070  0.030620  0.660770  1.0  -0.1211
  C  C171  1  0.341230  0.078770  0.452970  1.0  -0.0204
  C  C172  1  0.604600  0.480150  0.994700  1.0  0.1987
  C  C173  1  0.636050  0.452790  0.994100  1.0  -0.1229
  C  C174  1  0.587900  0.595800  0.786300  1.0  -0.012
  C  C175  1  0.271270  0.813480  0.328030  1.0  0.1987
  C  C176  1  0.302720  0.786120  0.327430  1.0  -0.1229
  C  C177  1  0.254570  0.929130  0.119630  1.0  -0.012
  C  C178  1  0.937930  0.146820  0.661370  1.0  0.1987
  C  C179  1  0.969380  0.119460  0.660770  1.0  -0.1228
  C  C180  1  0.921230  0.262470  0.452970  1.0  -0.0123
  C  C181  1  0.124450  0.519850  0.005300  1.0  0.197
  C  C182  1  0.183260  0.547210  0.005900  1.0  -0.1216
  C  C183  1  0.992100  0.404200  0.213700  1.0  -0.0153
  C  C184  1  0.791120  0.853180  0.338630  1.0  0.1975
  C  C185  1  0.849930  0.880540  0.339230  1.0  -0.122
  C  C186  1  0.658770  0.737530  0.547030  1.0  -0.0116
  C  C187  1  0.457780  0.186520  0.671970  1.0  0.197
  C  C188  1  0.516590  0.213880  0.672570  1.0  -0.1216
  C  C189  1  0.325430  0.070870  0.880370  1.0  -0.0214
  C  C190  1  0.395400  0.875550  0.005300  1.0  0.1986
  C  C191  1  0.363950  0.816740  0.005900  1.0  -0.1208
  C  C192  1  0.412100  0.007900  0.213700  1.0  -0.0148
  C  C193  1  0.062070  0.208880  0.338630  1.0  0.198
  C  C194  1  0.030620  0.150070  0.339230  1.0  -0.1206
  C  C195  1  0.078770  0.341230  0.547030  1.0  -0.0205
  C  C196  1  0.728730  0.542220  0.671970  1.0  0.1986
  C  C197  1  0.697280  0.483410  0.672570  1.0  -0.1207
  C  C198  1  0.745430  0.674570  0.880370  1.0  -0.0099
  C  C199  1  0.480150  0.604600  0.005300  1.0  0.1994
  C  C200  1  0.452790  0.636050  0.005900  1.0  -0.1222
  C  C201  1  0.595800  0.587900  0.213700  1.0  -0.0113
  C  C202  1  0.146820  0.937930  0.338630  1.0  0.1994
  C  C203  1  0.119460  0.969380  0.339230  1.0  -0.122
  C  C204  1  0.262470  0.921230  0.547030  1.0  -0.0117
  C  C205  1  0.813480  0.271270  0.671970  1.0  0.1994
  C  C206  1  0.786120  0.302720  0.672570  1.0  -0.1222
  C  C207  1  0.929130  0.254570  0.880370  1.0  -0.0113
  C  C208  1  0.392650  0.785300  0.003100  1.0  -0.0628
  C  C209  1  0.361500  0.723000  0.003100  1.0  0.4038
  C  C210  1  0.059320  0.118630  0.336430  1.0  -0.0627
  C  C211  1  0.028170  0.056330  0.336430  1.0  0.4039
  C  C212  1  0.725980  0.451970  0.669770  1.0  -0.0628
  C  C213  1  0.694830  0.389670  0.669770  1.0  0.4038
  C  C214  1  0.214700  0.607350  0.003100  1.0  -0.0655
  C  C215  1  0.277000  0.638500  0.003100  1.0  0.4028
  C  C216  1  0.881370  0.940680  0.336430  1.0  -0.0655
  C  C217  1  0.943670  0.971830  0.336430  1.0  0.4029
  C  C218  1  0.548030  0.274020  0.669770  1.0  -0.0655
  C  C219  1  0.610330  0.305170  0.669770  1.0  0.4028
  C  C220  1  0.392650  0.607350  0.003100  1.0  -0.0643
  C  C221  1  0.361500  0.638500  0.003100  1.0  0.4046
  C  C222  1  0.059320  0.940680  0.336430  1.0  -0.0645
  C  C223  1  0.028170  0.971830  0.336430  1.0  0.4028
  C  C224  1  0.725980  0.274020  0.669770  1.0  -0.0643
  C  C225  1  0.694830  0.305170  0.669770  1.0  0.4046
  C  C226  1  0.785300  0.392650  0.996900  1.0  -0.067
  C  C227  1  0.723000  0.361500  0.996900  1.0  0.4048
  C  C228  1  0.451970  0.725980  0.330230  1.0  -0.067
  C  C229  1  0.389670  0.694830  0.330230  1.0  0.4048
  C  C230  1  0.118630  0.059320  0.663570  1.0  -0.0669
  C  C231  1  0.056330  0.028170  0.663570  1.0  0.405
  C  C232  1  0.607350  0.214700  0.996900  1.0  -0.0636
  C  C233  1  0.638500  0.277000  0.996900  1.0  0.405
  C  C234  1  0.274020  0.548030  0.330230  1.0  -0.0636
  C  C235  1  0.305170  0.610330  0.330230  1.0  0.405
  C  C236  1  0.940680  0.881370  0.663570  1.0  -0.0635
  C  C237  1  0.971830  0.943670  0.663570  1.0  0.4051
  C  C238  1  0.607350  0.392650  0.996900  1.0  -0.0664
  C  C239  1  0.638500  0.361500  0.996900  1.0  0.4075
  C  C240  1  0.274020  0.725980  0.330230  1.0  -0.0664
  C  C241  1  0.305170  0.694830  0.330230  1.0  0.4075
  C  C242  1  0.940680  0.059320  0.663570  1.0  -0.0665
  C  C243  1  0.971830  0.028170  0.663570  1.0  0.4057
  N  N244  1  0.558820  0.000660  0.146600  1.0  -0.3748
  N  N245  1  0.225490  0.333990  0.479930  1.0  -0.3805
  N  N246  1  0.892150  0.667330  0.813270  1.0  -0.3718
  N  N247  1  0.999340  0.558160  0.146600  1.0  -0.3775
  N  N248  1  0.666010  0.891490  0.479930  1.0  -0.3712
  N  N249  1  0.332670  0.224830  0.813270  1.0  -0.3809
  N  N250  1  0.441840  0.441180  0.146600  1.0  -0.3824
  N  N251  1  0.108510  0.774510  0.479930  1.0  -0.3824
  N  N252  1  0.775170  0.107850  0.813270  1.0  -0.3824
  N  N253  1  0.000660  0.558820  0.853400  1.0  -0.3759
  N  N254  1  0.667330  0.892150  0.186730  1.0  -0.3726
  N  N255  1  0.333990  0.225490  0.520070  1.0  -0.3827
  N  N256  1  0.558160  0.999340  0.853400  1.0  -0.3763
  N  N257  1  0.224830  0.332670  0.186730  1.0  -0.38
  N  N258  1  0.891490  0.666010  0.520070  1.0  -0.3697
  N  N259  1  0.441180  0.441840  0.853400  1.0  -0.3808
  N  N260  1  0.107850  0.775170  0.186730  1.0  -0.3808
  N  N261  1  0.774510  0.108510  0.520070  1.0  -0.3808
  N  N262  1  0.441180  0.999340  0.853400  1.0  -0.3743
  N  N263  1  0.107850  0.332670  0.186730  1.0  -0.3716
  N  N264  1  0.774510  0.666010  0.520070  1.0  -0.3807
  N  N265  1  0.000660  0.441840  0.853400  1.0  -0.3775
  N  N266  1  0.667330  0.775170  0.186730  1.0  -0.3816
  N  N267  1  0.333990  0.108510  0.520070  1.0  -0.3708
  N  N268  1  0.558160  0.558820  0.853400  1.0  -0.3825
  N  N269  1  0.224830  0.892150  0.186730  1.0  -0.3825
  N  N270  1  0.891490  0.225490  0.520070  1.0  -0.3825
  N  N271  1  0.999340  0.441180  0.146600  1.0  -0.3761
  N  N272  1  0.666010  0.774510  0.479930  1.0  -0.3821
  N  N273  1  0.332670  0.107850  0.813270  1.0  -0.3735
  N  N274  1  0.441840  0.000660  0.146600  1.0  -0.377
  N  N275  1  0.108510  0.333990  0.479930  1.0  -0.371
  N  N276  1  0.775170  0.667330  0.813270  1.0  -0.381
  N  N277  1  0.558820  0.558160  0.146600  1.0  -0.3815
  N  N278  1  0.225490  0.891490  0.479930  1.0  -0.3815
  N  N279  1  0.892150  0.224830  0.813270  1.0  -0.3815
  N  N280  1  0.452550  0.905100  0.004000  1.0  -0.2877
  N  N281  1  0.119220  0.238430  0.337330  1.0  -0.2876
  N  N282  1  0.785880  0.571770  0.670670  1.0  -0.2877
  N  N283  1  0.094900  0.547450  0.004000  1.0  -0.2818
  N  N284  1  0.761570  0.880780  0.337330  1.0  -0.2818
  N  N285  1  0.428230  0.214120  0.670670  1.0  -0.2818
  N  N286  1  0.452550  0.547450  0.004000  1.0  -0.2756
  N  N287  1  0.119220  0.880780  0.337330  1.0  -0.2756
  N  N288  1  0.785880  0.214120  0.670670  1.0  -0.2756
  N  N289  1  0.905100  0.452550  0.996000  1.0  -0.2799
  N  N290  1  0.571770  0.785880  0.329330  1.0  -0.2799
  N  N291  1  0.238430  0.119220  0.662670  1.0  -0.2799
  N  N292  1  0.547450  0.094900  0.996000  1.0  -0.2875
  N  N293  1  0.214120  0.428230  0.329330  1.0  -0.2875
  N  N294  1  0.880780  0.761570  0.662670  1.0  -0.2875
  N  N295  1  0.547450  0.452550  0.996000  1.0  -0.2772
  N  N296  1  0.214120  0.785880  0.329330  1.0  -0.2772
  N  N297  1  0.880780  0.119220  0.662670  1.0  -0.2772
  N  N298  1  0.303910  0.696090  0.004400  1.0  -0.537
  N  N299  1  0.970580  0.029420  0.337730  1.0  -0.5369
  N  N300  1  0.637240  0.362760  0.671070  1.0  -0.537
  N  N301  1  0.303910  0.607820  0.004400  1.0  -0.5367
  N  N302  1  0.970580  0.941150  0.337730  1.0  -0.5366
  N  N303  1  0.637240  0.274490  0.671070  1.0  -0.5367
  N  N304  1  0.392180  0.696090  0.004400  1.0  -0.537
  N  N305  1  0.058850  0.029420  0.337730  1.0  -0.5368
  N  N306  1  0.725510  0.362760  0.671070  1.0  -0.537
  N  N307  1  0.696090  0.303910  0.995600  1.0  -0.5367
  N  N308  1  0.362760  0.637240  0.328930  1.0  -0.5367
  N  N309  1  0.029420  0.970580  0.662270  1.0  -0.5369
  N  N310  1  0.607820  0.303910  0.995600  1.0  -0.5404
  N  N311  1  0.274490  0.637240  0.328930  1.0  -0.5404
  N  N312  1  0.941150  0.970580  0.662270  1.0  -0.5403
  N  N313  1  0.696090  0.392180  0.995600  1.0  -0.5389
  N  N314  1  0.362760  0.725510  0.328930  1.0  -0.5389
  N  N315  1  0.029420  0.058850  0.662270  1.0  -0.5388
