# generated using pymatgen
data_FeAg2H8(C2N)8
_symmetry_space_group_name_H-M   'P 1'
_cell_length_a   26.21740000
_cell_length_b   26.21740000
_cell_length_c   9.57340000
_cell_angle_alpha   90.00000000
_cell_angle_beta   90.00000000
_cell_angle_gamma   120.00000000
_symmetry_Int_Tables_number   1
_chemical_formula_structural   FeAg2H8(C2N)8
_chemical_formula_sum   'Fe9 Ag18 H72 C144 N72'
_cell_volume   5698.70370621
_cell_formula_units_Z   9
loop_
 _symmetry_equiv_pos_site_id
 _symmetry_equiv_pos_as_xyz
  1  'x, y, z'
loop_
 _atom_site_type_symbol
 _atom_site_label
 _atom_site_symmetry_multiplicity
 _atom_site_fract_x
 _atom_site_fract_y
 _atom_site_fract_z
 _atom_site_occupancy
 _atom_site_charge
  Fe  Fe1  1  0.500000  0.000000  0.000000  1.0  0.606
  Fe  Fe2  1  0.166670  0.333333  0.333333  1.0  0.6042
  Fe  Fe3  1  0.833330  0.666667  0.666667  1.0  0.6053
  Fe  Fe4  1  0.000000  0.500000  0.000000  1.0  0.606
  Fe  Fe5  1  0.666667  0.833330  0.333333  1.0  0.6043
  Fe  Fe6  1  0.333333  0.166670  0.666667  1.0  0.6052
  Fe  Fe7  1  0.500000  0.500000  0.000000  1.0  0.606
  Fe  Fe8  1  0.166670  0.833330  0.333333  1.0  0.6052
  Fe  Fe9  1  0.833330  0.166670  0.666667  1.0  0.6062
  Ag  Ag10  1  0.333333  0.965950  0.666667  1.0  0.3328
  Ag  Ag11  1  0.000000  0.299280  0.000000  1.0  0.3331
  Ag  Ag12  1  0.034050  0.367390  0.666667  1.0  0.3327
  Ag  Ag13  1  0.700720  0.700720  0.000000  1.0  0.3321
  Ag  Ag14  1  0.632610  0.666667  0.666667  1.0  0.335
  Ag  Ag15  1  0.299280  0.000000  0.000000  1.0  0.3351
  Ag  Ag16  1  0.965950  0.333333  0.333333  1.0  0.3345
  Ag  Ag17  1  0.367390  0.034050  0.333333  1.0  0.3298
  Ag  Ag18  1  0.666667  0.632610  0.333333  1.0  0.3331
  Ag  Ag19  1  0.666667  0.034050  0.333333  1.0  0.3337
  Ag  Ag20  1  0.965950  0.632610  0.333333  1.0  0.3347
  Ag  Ag21  1  0.367390  0.333333  0.333333  1.0  0.3299
  Ag  Ag22  1  0.034050  0.666667  0.666667  1.0  0.3292
  Ag  Ag23  1  0.700720  0.000000  0.000000  1.0  0.3298
  Ag  Ag24  1  0.632610  0.965950  0.666667  1.0  0.3352
  Ag  Ag25  1  0.299280  0.299280  0.000000  1.0  0.3342
  Ag  Ag26  1  0.333333  0.367390  0.666667  1.0  0.3339
  Ag  Ag27  1  0.000000  0.700720  0.000000  1.0  0.3339
  H  H28  1  0.623500  0.097900  0.992100  1.0  0.092
  H  H29  1  0.676500  0.199300  0.996200  1.0  0.1325
  H  H30  1  0.290170  0.431230  0.325430  1.0  0.092
  H  H31  1  0.343170  0.532630  0.329530  1.0  0.1325
  H  H32  1  0.956830  0.764570  0.658770  1.0  0.092
  H  H33  1  0.009830  0.865970  0.662870  1.0  0.1325
  H  H34  1  0.902100  0.525600  0.992100  1.0  0.0908
  H  H35  1  0.800700  0.477200  0.996200  1.0  0.1322
  H  H36  1  0.568770  0.858930  0.325430  1.0  0.0908
  H  H37  1  0.467370  0.810530  0.329530  1.0  0.1322
  H  H38  1  0.235430  0.192270  0.658770  1.0  0.0908
  H  H39  1  0.134030  0.143870  0.662870  1.0  0.1348
  H  H40  1  0.474400  0.376500  0.992100  1.0  0.0902
  H  H41  1  0.522800  0.323500  0.996200  1.0  0.1337
  H  H42  1  0.141070  0.709830  0.325430  1.0  0.0902
  H  H43  1  0.189470  0.656830  0.329530  1.0  0.1337
  H  H44  1  0.807730  0.043170  0.658770  1.0  0.0902
  H  H45  1  0.856130  0.990170  0.662870  1.0  0.13
  H  H46  1  0.097900  0.623500  0.007900  1.0  0.0897
  H  H47  1  0.199300  0.676500  0.003800  1.0  0.1301
  H  H48  1  0.764570  0.956830  0.341230  1.0  0.0897
  H  H49  1  0.865970  0.009830  0.337130  1.0  0.13
  H  H50  1  0.431230  0.290170  0.674570  1.0  0.0897
  H  H51  1  0.532630  0.343170  0.670470  1.0  0.1301
  H  H52  1  0.525600  0.902100  0.007900  1.0  0.091
  H  H53  1  0.477200  0.800700  0.003800  1.0  0.1326
  H  H54  1  0.192270  0.235430  0.341230  1.0  0.091
  H  H55  1  0.143870  0.134030  0.337130  1.0  0.1348
  H  H56  1  0.858930  0.568770  0.674570  1.0  0.091
  H  H57  1  0.810530  0.467370  0.670470  1.0  0.1326
  H  H58  1  0.376500  0.474400  0.007900  1.0  0.0909
  H  H59  1  0.323500  0.522800  0.003800  1.0  0.1342
  H  H60  1  0.043170  0.807730  0.341230  1.0  0.0909
  H  H61  1  0.990170  0.856130  0.337130  1.0  0.1315
  H  H62  1  0.709830  0.141070  0.674570  1.0  0.0909
  H  H63  1  0.656830  0.189470  0.670470  1.0  0.1342
  H  H64  1  0.376500  0.902100  0.007900  1.0  0.0911
  H  H65  1  0.323500  0.800700  0.003800  1.0  0.1322
  H  H66  1  0.043170  0.235430  0.341230  1.0  0.0911
  H  H67  1  0.990170  0.134030  0.337130  1.0  0.1321
  H  H68  1  0.709830  0.568770  0.674570  1.0  0.0911
  H  H69  1  0.656830  0.467370  0.670470  1.0  0.1322
  H  H70  1  0.097900  0.474400  0.007900  1.0  0.0908
  H  H71  1  0.199300  0.522800  0.003800  1.0  0.1314
  H  H72  1  0.764570  0.807730  0.341230  1.0  0.0908
  H  H73  1  0.865970  0.856130  0.337130  1.0  0.134
  H  H74  1  0.431230  0.141070  0.674570  1.0  0.0908
  H  H75  1  0.532630  0.189470  0.670470  1.0  0.1314
  H  H76  1  0.525600  0.623500  0.007900  1.0  0.0902
  H  H77  1  0.477200  0.676500  0.003800  1.0  0.1335
  H  H78  1  0.192270  0.956830  0.341230  1.0  0.0902
  H  H79  1  0.143870  0.009830  0.337130  1.0  0.1299
  H  H80  1  0.858930  0.290170  0.674570  1.0  0.0902
  H  H81  1  0.810530  0.343170  0.670470  1.0  0.1335
  H  H82  1  0.902100  0.376500  0.992100  1.0  0.0904
  H  H83  1  0.800700  0.323500  0.996200  1.0  0.1301
  H  H84  1  0.568770  0.709830  0.325430  1.0  0.0904
  H  H85  1  0.467370  0.656830  0.329530  1.0  0.1301
  H  H86  1  0.235430  0.043170  0.658770  1.0  0.0904
  H  H87  1  0.134030  0.990170  0.662870  1.0  0.1301
  H  H88  1  0.474400  0.097900  0.992100  1.0  0.0916
  H  H89  1  0.522800  0.199300  0.996200  1.0  0.133
  H  H90  1  0.141070  0.431230  0.325430  1.0  0.0916
  H  H91  1  0.189470  0.532630  0.329530  1.0  0.133
  H  H92  1  0.807730  0.764570  0.658770  1.0  0.0916
  H  H93  1  0.856130  0.865970  0.662870  1.0  0.1358
  H  H94  1  0.623500  0.525600  0.992100  1.0  0.0909
  H  H95  1  0.676500  0.477200  0.996200  1.0  0.1349
  H  H96  1  0.290170  0.858930  0.325430  1.0  0.0909
  H  H97  1  0.343170  0.810530  0.329530  1.0  0.1349
  H  H98  1  0.956830  0.192270  0.658770  1.0  0.0909
  H  H99  1  0.009830  0.143870  0.662870  1.0  0.1319
  C  C100  1  0.603260  0.118580  0.993800  1.0  0.174
  C  C101  1  0.635510  0.179550  0.995700  1.0  -0.0909
  C  C102  1  0.408100  0.993400  0.785900  1.0  -0.0181
  C  C103  1  0.269930  0.451910  0.327130  1.0  0.1756
  C  C104  1  0.302180  0.512880  0.329030  1.0  -0.0909
  C  C105  1  0.074770  0.326730  0.119230  1.0  -0.0231
  C  C106  1  0.936590  0.785250  0.660470  1.0  0.1775
  C  C107  1  0.968840  0.846220  0.662370  1.0  -0.0909
  C  C108  1  0.741430  0.660070  0.452570  1.0  -0.0009
  C  C109  1  0.881420  0.484680  0.993800  1.0  0.1798
  C  C110  1  0.820450  0.455960  0.995700  1.0  -0.0921
  C  C111  1  0.006600  0.414700  0.785900  1.0  -0.022
  C  C112  1  0.548090  0.818010  0.327130  1.0  0.1798
  C  C113  1  0.487120  0.789290  0.329030  1.0  -0.0921
  C  C114  1  0.673270  0.748030  0.119230  1.0  -0.0015
  C  C115  1  0.214750  0.151350  0.660470  1.0  0.1765
  C  C116  1  0.153780  0.122630  0.662370  1.0  -0.0921
  C  C117  1  0.339930  0.081370  0.452570  1.0  -0.0248
  C  C118  1  0.515320  0.396740  0.993800  1.0  0.1798
  C  C119  1  0.544040  0.364490  0.995700  1.0  -0.0906
  C  C120  1  0.585300  0.591900  0.785900  1.0  -0.0015
  C  C121  1  0.181990  0.730070  0.327130  1.0  0.1798
  C  C122  1  0.210710  0.697820  0.329030  1.0  -0.0906
  C  C123  1  0.251970  0.925230  0.119230  1.0  -0.0015
  C  C124  1  0.848650  0.063410  0.660470  1.0  0.1799
  C  C125  1  0.877370  0.031160  0.662370  1.0  -0.0906
  C  C126  1  0.918630  0.258570  0.452570  1.0  -0.0015
  C  C127  1  0.118580  0.603260  0.006200  1.0  0.1737
  C  C128  1  0.179550  0.635510  0.004300  1.0  -0.0908
  C  C129  1  0.993400  0.408100  0.214100  1.0  -0.0183
  C  C130  1  0.785250  0.936590  0.339530  1.0  0.1762
  C  C131  1  0.846220  0.968840  0.337630  1.0  -0.0908
  C  C132  1  0.660070  0.741430  0.547430  1.0  -0.0011
  C  C133  1  0.451910  0.269930  0.672870  1.0  0.1737
  C  C134  1  0.512880  0.302180  0.670970  1.0  -0.0908
  C  C135  1  0.326730  0.074770  0.880770  1.0  -0.0248
  C  C136  1  0.484680  0.881420  0.006200  1.0  0.1805
  C  C137  1  0.455960  0.820450  0.004300  1.0  -0.091
  C  C138  1  0.414700  0.006600  0.214100  1.0  -0.0211
  C  C139  1  0.151350  0.214750  0.339530  1.0  0.1764
  C  C140  1  0.122630  0.153780  0.337630  1.0  -0.091
  C  C141  1  0.081370  0.339930  0.547430  1.0  -0.0238
  C  C142  1  0.818010  0.548090  0.672870  1.0  0.1802
  C  C143  1  0.789290  0.487120  0.670970  1.0  -0.091
  C  C144  1  0.748030  0.673270  0.880770  1.0  0.0005
  C  C145  1  0.396740  0.515320  0.006200  1.0  0.1782
  C  C146  1  0.364490  0.544040  0.004300  1.0  -0.0902
  C  C147  1  0.591900  0.585300  0.214100  1.0  -0.0005
  C  C148  1  0.063410  0.848650  0.339530  1.0  0.1784
  C  C149  1  0.031160  0.877370  0.337630  1.0  -0.0901
  C  C150  1  0.258570  0.918630  0.547430  1.0  -0.0002
  C  C151  1  0.730070  0.181990  0.672870  1.0  0.1782
  C  C152  1  0.697820  0.210710  0.670970  1.0  -0.0902
  C  C153  1  0.925230  0.251970  0.880770  1.0  -0.0002
  C  C154  1  0.396740  0.881420  0.006200  1.0  0.1797
  C  C155  1  0.364490  0.820450  0.004300  1.0  -0.09
  C  C156  1  0.591900  0.006600  0.214100  1.0  -0.0172
  C  C157  1  0.063410  0.214750  0.339530  1.0  0.1843
  C  C158  1  0.031160  0.153780  0.337630  1.0  -0.09
  C  C159  1  0.258570  0.339930  0.547430  1.0  0.0009
  C  C160  1  0.730070  0.548090  0.672870  1.0  0.1797
  C  C161  1  0.697820  0.487120  0.670970  1.0  -0.0899
  C  C162  1  0.925230  0.673270  0.880770  1.0  -0.0228
  C  C163  1  0.118580  0.515320  0.006200  1.0  0.1785
  C  C164  1  0.179550  0.544040  0.004300  1.0  -0.0904
  C  C165  1  0.993400  0.585300  0.214100  1.0  -0.0218
  C  C166  1  0.785250  0.848650  0.339530  1.0  0.176
  C  C167  1  0.846220  0.877370  0.337630  1.0  -0.0905
  C  C168  1  0.660070  0.918630  0.547430  1.0  -0.0251
  C  C169  1  0.451910  0.181990  0.672870  1.0  0.1785
  C  C170  1  0.512880  0.210710  0.670970  1.0  -0.0905
  C  C171  1  0.326730  0.251970  0.880770  1.0  -0.0003
  C  C172  1  0.484680  0.603260  0.006200  1.0  0.1732
  C  C173  1  0.455960  0.635510  0.004300  1.0  -0.0906
  C  C174  1  0.414700  0.408100  0.214100  1.0  -0.0022
  C  C175  1  0.151350  0.936590  0.339530  1.0  0.1733
  C  C176  1  0.122630  0.968840  0.337630  1.0  -0.0906
  C  C177  1  0.081370  0.741430  0.547430  1.0  -0.0021
  C  C178  1  0.818010  0.269930  0.672870  1.0  0.1732
  C  C179  1  0.789290  0.302180  0.670970  1.0  -0.0906
  C  C180  1  0.748030  0.074770  0.880770  1.0  -0.0021
  C  C181  1  0.881420  0.396740  0.993800  1.0  0.1779
  C  C182  1  0.820450  0.364490  0.995700  1.0  -0.0895
  C  C183  1  0.006600  0.591900  0.785900  1.0  -0.0202
  C  C184  1  0.548090  0.730070  0.327130  1.0  0.1779
  C  C185  1  0.487120  0.697820  0.329030  1.0  -0.0895
  C  C186  1  0.673270  0.925230  0.119230  1.0  -0.0254
  C  C187  1  0.214750  0.063410  0.660470  1.0  0.1816
  C  C188  1  0.153780  0.031160  0.662370  1.0  -0.0895
  C  C189  1  0.339930  0.258570  0.452570  1.0  -0.0028
  C  C190  1  0.515320  0.118580  0.993800  1.0  0.1842
  C  C191  1  0.544040  0.179550  0.995700  1.0  -0.0915
  C  C192  1  0.585300  0.993400  0.785900  1.0  -0.0204
  C  C193  1  0.181990  0.451910  0.327130  1.0  0.1841
  C  C194  1  0.210710  0.512880  0.329030  1.0  -0.0915
  C  C195  1  0.251970  0.326730  0.119230  1.0  -0.0014
  C  C196  1  0.848650  0.785250  0.660470  1.0  0.18
  C  C197  1  0.877370  0.846220  0.662370  1.0  -0.0915
  C  C198  1  0.918630  0.660070  0.452570  1.0  -0.0238
  C  C199  1  0.603260  0.484680  0.993800  1.0  0.1733
  C  C200  1  0.635510  0.455960  0.995700  1.0  -0.0911
  C  C201  1  0.408100  0.414700  0.785900  1.0  -0.0026
  C  C202  1  0.269930  0.818010  0.327130  1.0  0.1733
  C  C203  1  0.302180  0.789290  0.329030  1.0  -0.091
  C  C204  1  0.074770  0.748030  0.119230  1.0  -0.0026
  C  C205  1  0.936590  0.151350  0.660470  1.0  0.1731
  C  C206  1  0.968840  0.122630  0.662370  1.0  -0.091
  C  C207  1  0.741430  0.081370  0.452570  1.0  -0.0026
  C  C208  1  0.605250  0.210500  0.996600  1.0  -0.1013
  C  C209  1  0.638050  0.276100  0.999600  1.0  0.4141
  C  C210  1  0.271920  0.543830  0.329930  1.0  -0.1013
  C  C211  1  0.304720  0.609430  0.332930  1.0  0.4141
  C  C212  1  0.938580  0.877170  0.663270  1.0  -0.1013
  C  C213  1  0.971380  0.942770  0.666270  1.0  0.4141
  C  C214  1  0.789500  0.394750  0.996600  1.0  -0.1028
  C  C215  1  0.723900  0.361950  0.999600  1.0  0.4118
  C  C216  1  0.456170  0.728080  0.329930  1.0  -0.1028
  C  C217  1  0.390570  0.695280  0.332930  1.0  0.4118
  C  C218  1  0.122830  0.061420  0.663270  1.0  -0.1028
  C  C219  1  0.057230  0.028620  0.666270  1.0  0.4118
  C  C220  1  0.605250  0.394750  0.996600  1.0  -0.1031
  C  C221  1  0.638050  0.361950  0.999600  1.0  0.4016
  C  C222  1  0.271920  0.728080  0.329930  1.0  -0.1031
  C  C223  1  0.304720  0.695280  0.332930  1.0  0.4016
  C  C224  1  0.938580  0.061420  0.663270  1.0  -0.1031
  C  C225  1  0.971380  0.028620  0.666270  1.0  0.4149
  C  C226  1  0.210500  0.605250  0.003400  1.0  -0.1025
  C  C227  1  0.276100  0.638050  0.000400  1.0  0.4102
  C  C228  1  0.877170  0.938580  0.336730  1.0  -0.1025
  C  C229  1  0.942770  0.971380  0.333730  1.0  0.4102
  C  C230  1  0.543830  0.271920  0.670070  1.0  -0.1025
  C  C231  1  0.609430  0.304720  0.667070  1.0  0.4102
  C  C232  1  0.394750  0.789500  0.003400  1.0  -0.1008
  C  C233  1  0.361950  0.723900  0.000400  1.0  0.4109
  C  C234  1  0.061420  0.122830  0.336730  1.0  -0.1007
  C  C235  1  0.028620  0.057230  0.333730  1.0  0.4109
  C  C236  1  0.728080  0.456170  0.670070  1.0  -0.1008
  C  C237  1  0.695280  0.390570  0.667070  1.0  0.4109
  C  C238  1  0.394750  0.605250  0.003400  1.0  -0.1031
  C  C239  1  0.361950  0.638050  0.000400  1.0  0.3988
  C  C240  1  0.061420  0.938580  0.336730  1.0  -0.1031
  C  C241  1  0.028620  0.971380  0.333730  1.0  0.4104
  C  C242  1  0.728080  0.271920  0.670070  1.0  -0.1031
  C  C243  1  0.695280  0.304720  0.667070  1.0  0.3988
  N  N244  1  0.445660  0.998450  0.858700  1.0  -0.3502
  N  N245  1  0.112330  0.331780  0.192030  1.0  -0.3463
  N  N246  1  0.778990  0.665120  0.525370  1.0  -0.3487
  N  N247  1  0.001550  0.447210  0.858700  1.0  -0.3481
  N  N248  1  0.668220  0.780540  0.192030  1.0  -0.3488
  N  N249  1  0.334880  0.113880  0.525370  1.0  -0.3465
  N  N250  1  0.552790  0.554340  0.858700  1.0  -0.3501
  N  N251  1  0.219460  0.887670  0.192030  1.0  -0.3501
  N  N252  1  0.886120  0.221010  0.525370  1.0  -0.35
  N  N253  1  0.998450  0.445660  0.141300  1.0  -0.3515
  N  N254  1  0.665120  0.778990  0.474630  1.0  -0.3507
  N  N255  1  0.331780  0.112330  0.807970  1.0  -0.348
  N  N256  1  0.447210  0.001550  0.141300  1.0  -0.35
  N  N257  1  0.113880  0.334880  0.474630  1.0  -0.3481
  N  N258  1  0.780540  0.668220  0.807970  1.0  -0.3511
  N  N259  1  0.554340  0.552790  0.141300  1.0  -0.351
  N  N260  1  0.221010  0.886120  0.474630  1.0  -0.3509
  N  N261  1  0.887670  0.219460  0.807970  1.0  -0.351
  N  N262  1  0.554340  0.001550  0.141300  1.0  -0.3498
  N  N263  1  0.221010  0.334880  0.474630  1.0  -0.3499
  N  N264  1  0.887670  0.668220  0.807970  1.0  -0.3468
  N  N265  1  0.998450  0.552790  0.141300  1.0  -0.351
  N  N266  1  0.665120  0.886120  0.474630  1.0  -0.3494
  N  N267  1  0.331780  0.219460  0.807970  1.0  -0.3519
  N  N268  1  0.447210  0.445660  0.141300  1.0  -0.3511
  N  N269  1  0.113880  0.778990  0.474630  1.0  -0.351
  N  N270  1  0.780540  0.112330  0.807970  1.0  -0.3511
  N  N271  1  0.001550  0.554340  0.858700  1.0  -0.3508
  N  N272  1  0.668220  0.887670  0.192030  1.0  -0.3469
  N  N273  1  0.334880  0.221010  0.525370  1.0  -0.3497
  N  N274  1  0.552790  0.998450  0.858700  1.0  -0.3476
  N  N275  1  0.219460  0.331780  0.192030  1.0  -0.3488
  N  N276  1  0.886120  0.665120  0.525370  1.0  -0.3463
  N  N277  1  0.445660  0.447210  0.858700  1.0  -0.3492
  N  N278  1  0.112330  0.780540  0.192030  1.0  -0.3492
  N  N279  1  0.778990  0.113880  0.525370  1.0  -0.3491
  N  N280  1  0.543850  0.087700  0.994400  1.0  -0.303
  N  N281  1  0.210520  0.421030  0.327730  1.0  -0.303
  N  N282  1  0.877180  0.754370  0.661070  1.0  -0.3026
  N  N283  1  0.912300  0.456150  0.994400  1.0  -0.3011
  N  N284  1  0.578970  0.789480  0.327730  1.0  -0.3011
  N  N285  1  0.245630  0.122820  0.661070  1.0  -0.3008
  N  N286  1  0.543850  0.456150  0.994400  1.0  -0.3024
  N  N287  1  0.210520  0.789480  0.327730  1.0  -0.3024
  N  N288  1  0.877180  0.122820  0.661070  1.0  -0.3024
  N  N289  1  0.087700  0.543850  0.005600  1.0  -0.3021
  N  N290  1  0.754370  0.877180  0.338930  1.0  -0.3017
  N  N291  1  0.421030  0.210520  0.672270  1.0  -0.3021
  N  N292  1  0.456150  0.912300  0.005600  1.0  -0.3017
  N  N293  1  0.122820  0.245630  0.338930  1.0  -0.3013
  N  N294  1  0.789480  0.578970  0.672270  1.0  -0.3017
  N  N295  1  0.456150  0.543850  0.005600  1.0  -0.3017
  N  N296  1  0.122820  0.877180  0.338930  1.0  -0.3017
  N  N297  1  0.789480  0.210520  0.672270  1.0  -0.3017
  N  N298  1  0.605900  0.302950  0.999000  1.0  -0.5445
  N  N299  1  0.272570  0.636280  0.332330  1.0  -0.5445
  N  N300  1  0.939230  0.969620  0.665670  1.0  -0.5445
  N  N301  1  0.697050  0.302950  0.999000  1.0  -0.5406
  N  N302  1  0.363720  0.636280  0.332330  1.0  -0.5406
  N  N303  1  0.030380  0.969620  0.665670  1.0  -0.543
  N  N304  1  0.697050  0.394100  0.999000  1.0  -0.5426
  N  N305  1  0.363720  0.727430  0.332330  1.0  -0.5426
  N  N306  1  0.030380  0.060770  0.665670  1.0  -0.5441
  N  N307  1  0.302950  0.605900  0.001000  1.0  -0.5387
  N  N308  1  0.969620  0.939230  0.334330  1.0  -0.5387
  N  N309  1  0.636280  0.272570  0.667670  1.0  -0.5387
  N  N310  1  0.302950  0.697050  0.001000  1.0  -0.5401
  N  N311  1  0.969620  0.030380  0.334330  1.0  -0.539
  N  N312  1  0.636280  0.363720  0.667670  1.0  -0.5401
  N  N313  1  0.394100  0.697050  0.001000  1.0  -0.5414
  N  N314  1  0.060770  0.030380  0.334330  1.0  -0.5402
  N  N315  1  0.727430  0.363720  0.667670  1.0  -0.5414
