# generated using pymatgen
data_CuH16C20(N3O2)2
_symmetry_space_group_name_H-M   'P 1'
_cell_length_a   11.31280000
_cell_length_b   11.31280000
_cell_length_c   34.11100000
_cell_angle_alpha   90.00000000
_cell_angle_beta   90.00000000
_cell_angle_gamma   120.00000000
_symmetry_Int_Tables_number   1
_chemical_formula_structural   CuH16C20(N3O2)2
_chemical_formula_sum   'Cu6 H96 C120 N36 O24'
_cell_volume   3780.63979684
_cell_formula_units_Z   6
loop_
 _symmetry_equiv_pos_site_id
 _symmetry_equiv_pos_as_xyz
  1  'x, y, z'
loop_
 _atom_site_type_symbol
 _atom_site_label
 _atom_site_symmetry_multiplicity
 _atom_site_fract_x
 _atom_site_fract_y
 _atom_site_fract_z
 _atom_site_occupancy
 _atom_site_charge
  Cu  Cu1  1  0.558530  0.441470  0.916670  1.0  0.868
  Cu  Cu2  1  0.558530  0.117060  0.250000  1.0  0.8675
  Cu  Cu3  1  0.882940  0.441470  0.583330  1.0  0.8677
  Cu  Cu4  1  0.441470  0.558530  0.416670  1.0  0.8676
  Cu  Cu5  1  0.441470  0.882940  0.750000  1.0  0.8676
  Cu  Cu6  1  0.117060  0.558530  0.083330  1.0  0.8683
  H  H7  1  0.873800  0.260400  0.839500  1.0  0.3345
  H  H8  1  0.773400  0.153200  0.812700  1.0  0.3617
  H  H9  1  0.423300  0.246000  0.848600  1.0  0.1031
  H  H10  1  0.096700  0.450000  0.936500  1.0  0.1008
  H  H11  1  0.898000  0.298000  0.904100  1.0  0.1233
  H  H12  1  0.158500  0.675500  0.940900  1.0  0.1045
  H  H13  1  0.033300  0.755400  0.909100  1.0  0.1059
  H  H14  1  0.837200  0.607000  0.874700  1.0  0.1278
  H  H15  1  0.739600  0.613400  0.172830  1.0  0.3348
  H  H16  1  0.846800  0.620200  0.146030  1.0  0.3604
  H  H17  1  0.754000  0.177300  0.181930  1.0  0.1034
  H  H18  1  0.550000  0.646700  0.269830  1.0  0.0997
  H  H19  1  0.702000  0.600000  0.237430  1.0  0.1204
  H  H20  1  0.324500  0.483000  0.274230  1.0  0.1046
  H  H21  1  0.244600  0.277900  0.242430  1.0  0.1049
  H  H22  1  0.393000  0.230200  0.208030  1.0  0.1273
  H  H23  1  0.386600  0.126200  0.506170  1.0  0.3359
  H  H24  1  0.379800  0.226600  0.479370  1.0  0.3607
  H  H25  1  0.822700  0.576700  0.515270  1.0  0.1043
  H  H26  1  0.353300  0.903300  0.603170  1.0  0.1007
  H  H27  1  0.400000  0.102000  0.570770  1.0  0.1229
  H  H28  1  0.517000  0.841500  0.607570  1.0  0.1049
  H  H29  1  0.722100  0.966700  0.575770  1.0  0.108
  H  H30  1  0.769800  0.162800  0.541370  1.0  0.1289
  H  H31  1  0.126200  0.739600  0.339500  1.0  0.3346
  H  H32  1  0.226600  0.846800  0.312700  1.0  0.3621
  H  H33  1  0.576700  0.754000  0.348600  1.0  0.1042
  H  H34  1  0.903300  0.550000  0.436500  1.0  0.1002
  H  H35  1  0.102000  0.702000  0.404100  1.0  0.1222
  H  H36  1  0.841500  0.324500  0.440900  1.0  0.1046
  H  H37  1  0.966700  0.244600  0.409100  1.0  0.1061
  H  H38  1  0.162800  0.393000  0.374700  1.0  0.1279
  H  H39  1  0.260400  0.386600  0.672830  1.0  0.3361
  H  H40  1  0.153200  0.379800  0.646030  1.0  0.3613
  H  H41  1  0.246000  0.822700  0.681930  1.0  0.1035
  H  H42  1  0.450000  0.353300  0.769830  1.0  0.0995
  H  H43  1  0.298000  0.400000  0.737430  1.0  0.1215
  H  H44  1  0.675500  0.517000  0.774230  1.0  0.1046
  H  H45  1  0.755400  0.722100  0.742430  1.0  0.1057
  H  H46  1  0.607000  0.769800  0.708030  1.0  0.1277
  H  H47  1  0.613400  0.873800  0.006170  1.0  0.3374
  H  H48  1  0.620200  0.773400  0.979370  1.0  0.3616
  H  H49  1  0.177300  0.423300  0.015270  1.0  0.1051
  H  H50  1  0.646700  0.096700  0.103170  1.0  0.1
  H  H51  1  0.600000  0.898000  0.070770  1.0  0.1228
  H  H52  1  0.483000  0.158500  0.107570  1.0  0.1044
  H  H53  1  0.277900  0.033300  0.075770  1.0  0.1088
  H  H54  1  0.230200  0.837200  0.041370  1.0  0.1285
  H  H55  1  0.260400  0.873800  0.493830  1.0  0.3375
  H  H56  1  0.153200  0.773400  0.520630  1.0  0.3614
  H  H57  1  0.246000  0.423300  0.484730  1.0  0.105
  H  H58  1  0.450000  0.096700  0.396830  1.0  0.1007
  H  H59  1  0.298000  0.898000  0.429230  1.0  0.1234
  H  H60  1  0.675500  0.158500  0.392430  1.0  0.1062
  H  H61  1  0.755400  0.033300  0.424230  1.0  0.108
  H  H62  1  0.607000  0.837200  0.458630  1.0  0.1288
  H  H63  1  0.613400  0.739600  0.160500  1.0  0.3356
  H  H64  1  0.620200  0.846800  0.187300  1.0  0.3611
  H  H65  1  0.177300  0.754000  0.151400  1.0  0.1025
  H  H66  1  0.646700  0.550000  0.063500  1.0  0.1008
  H  H67  1  0.600000  0.702000  0.095900  1.0  0.1226
  H  H68  1  0.483000  0.324500  0.059100  1.0  0.1057
  H  H69  1  0.277900  0.244600  0.090900  1.0  0.1053
  H  H70  1  0.230200  0.393000  0.125300  1.0  0.1281
  H  H71  1  0.126200  0.386600  0.827170  1.0  0.3375
  H  H72  1  0.226600  0.379800  0.853970  1.0  0.3619
  H  H73  1  0.576700  0.822700  0.818070  1.0  0.1034
  H  H74  1  0.903300  0.353300  0.730170  1.0  0.0998
  H  H75  1  0.102000  0.400000  0.762570  1.0  0.1216
  H  H76  1  0.841500  0.517000  0.725770  1.0  0.1057
  H  H77  1  0.966700  0.722100  0.757570  1.0  0.1059
  H  H78  1  0.162800  0.769800  0.791970  1.0  0.1275
  H  H79  1  0.739600  0.126200  0.993830  1.0  0.3367
  H  H80  1  0.846800  0.226600  0.020630  1.0  0.3607
  H  H81  1  0.754000  0.576700  0.984730  1.0  0.1043
  H  H82  1  0.550000  0.903300  0.896830  1.0  0.0997
  H  H83  1  0.702000  0.102000  0.929230  1.0  0.1232
  H  H84  1  0.324500  0.841500  0.892430  1.0  0.1055
  H  H85  1  0.244600  0.966700  0.924230  1.0  0.1084
  H  H86  1  0.393000  0.162800  0.958630  1.0  0.1283
  H  H87  1  0.386600  0.260400  0.660500  1.0  0.335
  H  H88  1  0.379800  0.153200  0.687300  1.0  0.3627
  H  H89  1  0.822700  0.246000  0.651400  1.0  0.1038
  H  H90  1  0.353300  0.450000  0.563500  1.0  0.0997
  H  H91  1  0.400000  0.298000  0.595900  1.0  0.1234
  H  H92  1  0.517000  0.675500  0.559100  1.0  0.106
  H  H93  1  0.722100  0.755400  0.590900  1.0  0.1057
  H  H94  1  0.769800  0.607000  0.625300  1.0  0.1275
  H  H95  1  0.873800  0.613400  0.327170  1.0  0.3354
  H  H96  1  0.773400  0.620200  0.353970  1.0  0.3606
  H  H97  1  0.423300  0.177300  0.318070  1.0  0.103
  H  H98  1  0.096700  0.646700  0.230170  1.0  0.0985
  H  H99  1  0.898000  0.600000  0.262570  1.0  0.121
  H  H100  1  0.158500  0.483000  0.225770  1.0  0.106
  H  H101  1  0.033300  0.277900  0.257570  1.0  0.1057
  H  H102  1  0.837200  0.230200  0.291970  1.0  0.1273
  C  C103  1  0.847500  0.437700  0.887020  1.0  0.1658
  C  C104  1  0.512100  0.261800  0.850610  1.0  0.0821
  C  C105  1  0.697100  0.245700  0.841350  1.0  0.3163
  C  C106  1  0.043100  0.481100  0.924720  1.0  -0.0899
  C  C107  1  0.925000  0.390200  0.905110  1.0  -0.2094
  C  C108  1  0.081200  0.615500  0.926810  1.0  -0.0694
  C  C109  1  0.005300  0.662900  0.908070  1.0  -0.0831
  C  C110  1  0.887700  0.574600  0.887620  1.0  -0.1858
  C  C111  1  0.561600  0.190100  0.829740  1.0  -0.1393
  C  C112  1  0.484800  0.075400  0.802840  1.0  0.6552
  C  C113  1  0.562300  0.409800  0.220350  1.0  0.1658
  C  C114  1  0.738200  0.250300  0.183940  1.0  0.08
  C  C115  1  0.754300  0.451400  0.174680  1.0  0.3176
  C  C116  1  0.518900  0.562000  0.258050  1.0  -0.0833
  C  C117  1  0.609800  0.534800  0.238440  1.0  -0.2126
  C  C118  1  0.384500  0.465700  0.260140  1.0  -0.0695
  C  C119  1  0.337100  0.342400  0.241400  1.0  -0.0867
  C  C120  1  0.425400  0.313100  0.220950  1.0  -0.1828
  C  C121  1  0.809900  0.371500  0.163070  1.0  -0.1383
  C  C122  1  0.924600  0.409400  0.136170  1.0  0.6543
  C  C123  1  0.590200  0.152500  0.553690  1.0  0.1665
  C  C124  1  0.749700  0.487900  0.517280  1.0  0.0783
  C  C125  1  0.548600  0.302900  0.508020  1.0  0.3157
  C  C126  1  0.438000  0.956900  0.591390  1.0  -0.0865
  C  C127  1  0.465200  0.075000  0.571780  1.0  -0.2129
  C  C128  1  0.534300  0.918800  0.593480  1.0  -0.0702
  C  C129  1  0.657600  0.994700  0.574740  1.0  -0.087
  C  C130  1  0.686900  0.112300  0.554290  1.0  -0.1836
  C  C131  1  0.628500  0.438400  0.496410  1.0  -0.1375
  C  C132  1  0.590600  0.515200  0.469510  1.0  0.6541
  C  C133  1  0.152500  0.562300  0.387020  1.0  0.1655
  C  C134  1  0.487900  0.738200  0.350610  1.0  0.082
  C  C135  1  0.302900  0.754300  0.341350  1.0  0.3155
  C  C136  1  0.956900  0.518900  0.424720  1.0  -0.0884
  C  C137  1  0.075000  0.609800  0.405110  1.0  -0.2109
  C  C138  1  0.918800  0.384500  0.426810  1.0  -0.0684
  C  C139  1  0.994700  0.337100  0.408070  1.0  -0.0855
  C  C140  1  0.112300  0.425400  0.387620  1.0  -0.1856
  C  C141  1  0.438400  0.809900  0.329740  1.0  -0.1377
  C  C142  1  0.515200  0.924600  0.302840  1.0  0.6552
  C  C143  1  0.437700  0.590200  0.720350  1.0  0.1656
  C  C144  1  0.261800  0.749700  0.683940  1.0  0.0797
  C  C145  1  0.245700  0.548600  0.674680  1.0  0.3174
  C  C146  1  0.481100  0.438000  0.758050  1.0  -0.0847
  C  C147  1  0.390200  0.465200  0.738440  1.0  -0.2106
  C  C148  1  0.615500  0.534300  0.760140  1.0  -0.0707
  C  C149  1  0.662900  0.657600  0.741400  1.0  -0.0851
  C  C150  1  0.574600  0.686900  0.720950  1.0  -0.1849
  C  C151  1  0.190100  0.628500  0.663070  1.0  -0.1399
  C  C152  1  0.075400  0.590600  0.636170  1.0  0.6549
  C  C153  1  0.409800  0.847500  0.053690  1.0  0.166
  C  C154  1  0.250300  0.512100  0.017280  1.0  0.08
  C  C155  1  0.451400  0.697100  0.008020  1.0  0.3161
  C  C156  1  0.562000  0.043100  0.091390  1.0  -0.0864
  C  C157  1  0.534800  0.925000  0.071780  1.0  -0.2115
  C  C158  1  0.465700  0.081200  0.093480  1.0  -0.0707
  C  C159  1  0.342400  0.005300  0.074740  1.0  -0.0887
  C  C160  1  0.313100  0.887700  0.054290  1.0  -0.1849
  C  C161  1  0.371500  0.561600  0.996410  1.0  -0.1382
  C  C162  1  0.409400  0.484800  0.969510  1.0  0.6547
  C  C163  1  0.437700  0.847500  0.446310  1.0  0.1662
  C  C164  1  0.261800  0.512100  0.482720  1.0  0.0797
  C  C165  1  0.245700  0.697100  0.491980  1.0  0.3175
  C  C166  1  0.481100  0.043100  0.408610  1.0  -0.0865
  C  C167  1  0.390200  0.925000  0.428220  1.0  -0.2123
  C  C168  1  0.615500  0.081200  0.406520  1.0  -0.0693
  C  C169  1  0.662900  0.005300  0.425260  1.0  -0.0876
  C  C170  1  0.574600  0.887700  0.445710  1.0  -0.1862
  C  C171  1  0.190100  0.561600  0.503590  1.0  -0.1381
  C  C172  1  0.075400  0.484800  0.530490  1.0  0.6549
  C  C173  1  0.409800  0.562300  0.112980  1.0  0.1665
  C  C174  1  0.250300  0.738200  0.149390  1.0  0.0833
  C  C175  1  0.451400  0.754300  0.158650  1.0  0.3173
  C  C176  1  0.562000  0.518900  0.075280  1.0  -0.09
  C  C177  1  0.534800  0.609800  0.094890  1.0  -0.2098
  C  C178  1  0.465700  0.384500  0.073190  1.0  -0.0688
  C  C179  1  0.342400  0.337100  0.091930  1.0  -0.0858
  C  C180  1  0.313100  0.425400  0.112380  1.0  -0.1849
  C  C181  1  0.371500  0.809900  0.170260  1.0  -0.1381
  C  C182  1  0.409400  0.924600  0.197160  1.0  0.6559
  C  C183  1  0.152500  0.590200  0.779650  1.0  0.1657
  C  C184  1  0.487900  0.749700  0.816060  1.0  0.0803
  C  C185  1  0.302900  0.548600  0.825320  1.0  0.319
  C  C186  1  0.956900  0.438000  0.741950  1.0  -0.0844
  C  C187  1  0.075000  0.465200  0.761560  1.0  -0.2102
  C  C188  1  0.918800  0.534300  0.739860  1.0  -0.0697
  C  C189  1  0.994700  0.657600  0.758600  1.0  -0.0857
  C  C190  1  0.112300  0.686900  0.779050  1.0  -0.1837
  C  C191  1  0.438400  0.628500  0.836930  1.0  -0.139
  C  C192  1  0.515200  0.590600  0.863830  1.0  0.6545
  C  C193  1  0.562300  0.152500  0.946310  1.0  0.1661
  C  C194  1  0.738200  0.487900  0.982720  1.0  0.0791
  C  C195  1  0.754300  0.302900  0.991980  1.0  0.3173
  C  C196  1  0.518900  0.956900  0.908610  1.0  -0.0874
  C  C197  1  0.609800  0.075000  0.928220  1.0  -0.2115
  C  C198  1  0.384500  0.918800  0.906520  1.0  -0.0704
  C  C199  1  0.337100  0.994700  0.925260  1.0  -0.0894
  C  C200  1  0.425400  0.112300  0.945710  1.0  -0.1855
  C  C201  1  0.809900  0.438400  0.003590  1.0  -0.1371
  C  C202  1  0.924600  0.515200  0.030490  1.0  0.654
  C  C203  1  0.590200  0.437700  0.612980  1.0  0.1653
  C  C204  1  0.749700  0.261800  0.649390  1.0  0.0827
  C  C205  1  0.548600  0.245700  0.658650  1.0  0.3172
  C  C206  1  0.438000  0.481100  0.575280  1.0  -0.0885
  C  C207  1  0.465200  0.390200  0.594890  1.0  -0.2101
  C  C208  1  0.534300  0.615500  0.573190  1.0  -0.0692
  C  C209  1  0.657600  0.662900  0.591930  1.0  -0.0838
  C  C210  1  0.686900  0.574600  0.612380  1.0  -0.1879
  C  C211  1  0.628500  0.190100  0.670260  1.0  -0.1388
  C  C212  1  0.590600  0.075400  0.697160  1.0  0.6556
  C  C213  1  0.847500  0.409800  0.279650  1.0  0.1661
  C  C214  1  0.512100  0.250300  0.316060  1.0  0.0824
  C  C215  1  0.697100  0.451400  0.325320  1.0  0.3189
  C  C216  1  0.043100  0.562000  0.241950  1.0  -0.0843
  C  C217  1  0.925000  0.534800  0.261560  1.0  -0.2129
  C  C218  1  0.081200  0.465700  0.239860  1.0  -0.07
  C  C219  1  0.005300  0.342400  0.258600  1.0  -0.0864
  C  C220  1  0.887700  0.313100  0.279050  1.0  -0.184
  C  C221  1  0.561600  0.371500  0.336930  1.0  -0.1399
  C  C222  1  0.484800  0.409400  0.363830  1.0  0.655
  N  N223  1  0.606540  0.355600  0.873760  1.0  -0.3001
  N  N224  1  0.792900  0.216200  0.829820  1.0  -0.7154
  N  N225  1  0.721890  0.344590  0.868380  1.0  -0.0232
  N  N226  1  0.644400  0.250940  0.207090  1.0  -0.2991
  N  N227  1  0.783800  0.576700  0.163150  1.0  -0.7167
  N  N228  1  0.655410  0.377300  0.201710  1.0  -0.0249
  N  N229  1  0.749060  0.393460  0.540430  1.0  -0.2988
  N  N230  1  0.423300  0.207100  0.496490  1.0  -0.7131
  N  N231  1  0.622700  0.278110  0.535050  1.0  -0.0255
  N  N232  1  0.393460  0.644400  0.373760  1.0  -0.2989
  N  N233  1  0.207100  0.783800  0.329820  1.0  -0.7147
  N  N234  1  0.278110  0.655410  0.368380  1.0  -0.0234
  N  N235  1  0.355600  0.749060  0.707090  1.0  -0.2989
  N  N236  1  0.216200  0.423300  0.663150  1.0  -0.7163
  N  N237  1  0.344590  0.622700  0.701710  1.0  -0.0248
  N  N238  1  0.250940  0.606540  0.040430  1.0  -0.2997
  N  N239  1  0.576700  0.792900  0.996490  1.0  -0.7139
  N  N240  1  0.377300  0.721890  0.035050  1.0  -0.0245
  N  N241  1  0.355600  0.606540  0.459570  1.0  -0.2985
  N  N242  1  0.216200  0.792900  0.503510  1.0  -0.713
  N  N243  1  0.344590  0.721890  0.464950  1.0  -0.0245
  N  N244  1  0.250940  0.644400  0.126240  1.0  -0.2995
  N  N245  1  0.576700  0.783800  0.170180  1.0  -0.7144
  N  N246  1  0.377300  0.655410  0.131620  1.0  -0.022
  N  N247  1  0.393460  0.749060  0.792910  1.0  -0.2983
  N  N248  1  0.207100  0.423300  0.836850  1.0  -0.7166
  N  N249  1  0.278110  0.622700  0.798290  1.0  -0.0235
  N  N250  1  0.644400  0.393460  0.959570  1.0  -0.299
  N  N251  1  0.783800  0.207100  0.003510  1.0  -0.7134
  N  N252  1  0.655410  0.278110  0.964950  1.0  -0.023
  N  N253  1  0.749060  0.355600  0.626240  1.0  -0.2987
  N  N254  1  0.423300  0.216200  0.670180  1.0  -0.7136
  N  N255  1  0.622700  0.344590  0.631620  1.0  -0.0222
  N  N256  1  0.606540  0.250940  0.292910  1.0  -0.2974
  N  N257  1  0.792900  0.576700  0.336850  1.0  -0.715
  N  N258  1  0.721890  0.377300  0.298290  1.0  -0.0241
  O  O259  1  0.552230  0.024810  0.787420  1.0  -0.6032
  O  O260  1  0.361130  0.032090  0.796310  1.0  -0.5989
  O  O261  1  0.975190  0.527420  0.120750  1.0  -0.6048
  O  O262  1  0.967910  0.329040  0.129640  1.0  -0.5969
  O  O263  1  0.472580  0.447770  0.454090  1.0  -0.6018
  O  O264  1  0.670960  0.638870  0.462980  1.0  -0.5948
  O  O265  1  0.447770  0.975190  0.287420  1.0  -0.6036
  O  O266  1  0.638870  0.967910  0.296310  1.0  -0.5988
  O  O267  1  0.024810  0.472580  0.620750  1.0  -0.6037
  O  O268  1  0.032090  0.670960  0.629640  1.0  -0.5965
  O  O269  1  0.527420  0.552230  0.954090  1.0  -0.6021
  O  O270  1  0.329040  0.361130  0.962980  1.0  -0.5947
  O  O271  1  0.024810  0.552230  0.545910  1.0  -0.6024
  O  O272  1  0.032090  0.361130  0.537020  1.0  -0.5957
  O  O273  1  0.527420  0.975190  0.212580  1.0  -0.6039
  O  O274  1  0.329040  0.967910  0.203690  1.0  -0.6008
  O  O275  1  0.447770  0.472580  0.879250  1.0  -0.604
  O  O276  1  0.638870  0.670960  0.870360  1.0  -0.5982
  O  O277  1  0.975190  0.447770  0.045910  1.0  -0.6017
  O  O278  1  0.967910  0.638870  0.037020  1.0  -0.5983
  O  O279  1  0.472580  0.024810  0.712580  1.0  -0.6037
  O  O280  1  0.670960  0.032090  0.703690  1.0  -0.6008
  O  O281  1  0.552230  0.527420  0.379250  1.0  -0.6048
  O  O282  1  0.361130  0.329040  0.370360  1.0  -0.5994
