# generated using pymatgen
data_Zn7H36C84(S2O13)3
_symmetry_space_group_name_H-M   'P 1'
_cell_length_a   23.07810000
_cell_length_b   23.07810000
_cell_length_c   27.37890000
_cell_angle_alpha   65.07340000
_cell_angle_beta   65.07340000
_cell_angle_gamma   60.00000000
_symmetry_Int_Tables_number   1
_chemical_formula_structural   Zn7H36C84(S2O13)3
_chemical_formula_sum   'Zn14 H72 C168 S12 O78'
_cell_volume   11032.04657398
_cell_formula_units_Z   2
loop_
 _symmetry_equiv_pos_site_id
 _symmetry_equiv_pos_as_xyz
  1  'x, y, z'
loop_
 _atom_site_type_symbol
 _atom_site_label
 _atom_site_symmetry_multiplicity
 _atom_site_fract_x
 _atom_site_fract_y
 _atom_site_fract_z
 _atom_site_occupancy
 _atom_site_charge
  Zn  Zn1  1  0.309270  0.332630  0.278100  1.0  1.0433
  Zn  Zn2  1  0.203080  0.428770  0.212130  1.0  1.0974
  Zn  Zn3  1  0.332630  0.080000  0.278100  1.0  1.0408
  Zn  Zn4  1  0.428770  0.156020  0.212130  1.0  1.0921
  Zn  Zn5  1  0.080000  0.309270  0.278100  1.0  1.0404
  Zn  Zn6  1  0.156020  0.203080  0.212130  1.0  1.0974
  Zn  Zn7  1  0.690730  0.667370  0.721900  1.0  1.0412
  Zn  Zn8  1  0.796920  0.571230  0.787870  1.0  1.097
  Zn  Zn9  1  0.667370  0.920000  0.721900  1.0  1.0397
  Zn  Zn10  1  0.571230  0.843980  0.787870  1.0  1.0914
  Zn  Zn11  1  0.920000  0.690730  0.721900  1.0  1.0399
  Zn  Zn12  1  0.843980  0.796920  0.787870  1.0  1.0988
  Zn  Zn13  1  0.734850  0.734850  0.795450  1.0  1.078
  Zn  Zn14  1  0.265150  0.265150  0.204550  1.0  1.0813
  H  H15  1  0.052200  0.575600  0.595200  1.0  0.1383
  H  H16  1  0.863100  0.667000  0.569700  1.0  0.1151
  H  H17  1  0.908400  0.627700  0.491700  1.0  0.1322
  H  H18  1  0.974900  0.585700  0.405900  1.0  0.1269
  H  H19  1  0.051600  0.539100  0.331800  1.0  0.1199
  H  H20  1  0.208800  0.457400  0.398100  1.0  0.1324
  H  H21  1  0.474400  0.398000  0.159000  1.0  0.1171
  H  H22  1  0.313900  0.559600  0.105000  1.0  0.1368
  H  H23  1  0.552200  0.447800  0.090600  1.0  0.138
  H  H24  1  0.617600  0.518400  0.009000  1.0  0.1263
  H  H25  1  0.467400  0.725600  0.918400  1.0  0.1378
  H  H26  1  0.660500  0.593000  0.933100  1.0  0.109
  H  H27  1  0.575600  0.777000  0.595200  1.0  0.1381
  H  H28  1  0.667000  0.900200  0.569700  1.0  0.1139
  H  H29  1  0.627700  0.972200  0.491700  1.0  0.1281
  H  H30  1  0.585700  0.033500  0.405900  1.0  0.1234
  H  H31  1  0.539100  0.077500  0.331800  1.0  0.1198
  H  H32  1  0.457400  0.935700  0.398100  1.0  0.1323
  H  H33  1  0.398000  0.968600  0.159000  1.0  0.1165
  H  H34  1  0.559600  0.021500  0.105000  1.0  0.1363
  H  H35  1  0.447800  0.909400  0.090600  1.0  0.1359
  H  H36  1  0.518400  0.855000  0.009000  1.0  0.126
  H  H37  1  0.725600  0.888600  0.918400  1.0  0.1383
  H  H38  1  0.593000  0.813400  0.933100  1.0  0.1087
  H  H39  1  0.777000  0.052200  0.595200  1.0  0.1389
  H  H40  1  0.900200  0.863100  0.569700  1.0  0.1147
  H  H41  1  0.972200  0.908400  0.491700  1.0  0.1307
  H  H42  1  0.033500  0.974900  0.405900  1.0  0.1268
  H  H43  1  0.077500  0.051600  0.331800  1.0  0.1208
  H  H44  1  0.935700  0.208800  0.398100  1.0  0.1315
  H  H45  1  0.968600  0.474400  0.159000  1.0  0.116
  H  H46  1  0.021500  0.313900  0.105000  1.0  0.1362
  H  H47  1  0.909400  0.552200  0.090600  1.0  0.1354
  H  H48  1  0.855000  0.617600  0.009000  1.0  0.1264
  H  H49  1  0.888600  0.467400  0.918400  1.0  0.1382
  H  H50  1  0.813400  0.660500  0.933100  1.0  0.1094
  H  H51  1  0.947800  0.424400  0.404800  1.0  0.1389
  H  H52  1  0.136900  0.333000  0.430300  1.0  0.1153
  H  H53  1  0.091600  0.372300  0.508300  1.0  0.1316
  H  H54  1  0.025100  0.414300  0.594100  1.0  0.1262
  H  H55  1  0.948400  0.460900  0.668200  1.0  0.1199
  H  H56  1  0.791200  0.542600  0.601900  1.0  0.1331
  H  H57  1  0.525600  0.602000  0.841000  1.0  0.1173
  H  H58  1  0.686100  0.440400  0.895000  1.0  0.1361
  H  H59  1  0.447800  0.552200  0.909400  1.0  0.1381
  H  H60  1  0.382400  0.481600  0.991000  1.0  0.1263
  H  H61  1  0.532600  0.274400  0.081600  1.0  0.1368
  H  H62  1  0.339500  0.407000  0.066900  1.0  0.1099
  H  H63  1  0.424400  0.223000  0.404800  1.0  0.1383
  H  H64  1  0.333000  0.099800  0.430300  1.0  0.1141
  H  H65  1  0.372300  0.027800  0.508300  1.0  0.1282
  H  H66  1  0.414300  0.966500  0.594100  1.0  0.1227
  H  H67  1  0.460900  0.922500  0.668200  1.0  0.1189
  H  H68  1  0.542600  0.064300  0.601900  1.0  0.1329
  H  H69  1  0.602000  0.031400  0.841000  1.0  0.1167
  H  H70  1  0.440400  0.978500  0.895000  1.0  0.1364
  H  H71  1  0.552200  0.090600  0.909400  1.0  0.1362
  H  H72  1  0.481600  0.145000  0.991000  1.0  0.125
  H  H73  1  0.274400  0.111400  0.081600  1.0  0.1394
  H  H74  1  0.407000  0.186600  0.066900  1.0  0.1082
  H  H75  1  0.223000  0.947800  0.404800  1.0  0.1385
  H  H76  1  0.099800  0.136900  0.430300  1.0  0.1151
  H  H77  1  0.027800  0.091600  0.508300  1.0  0.1309
  H  H78  1  0.966500  0.025100  0.594100  1.0  0.1279
  H  H79  1  0.922500  0.948400  0.668200  1.0  0.1211
  H  H80  1  0.064300  0.791200  0.601900  1.0  0.1322
  H  H81  1  0.031400  0.525600  0.841000  1.0  0.1164
  H  H82  1  0.978500  0.686100  0.895000  1.0  0.1369
  H  H83  1  0.090600  0.447800  0.909400  1.0  0.1349
  H  H84  1  0.145000  0.382400  0.991000  1.0  0.1264
  H  H85  1  0.111400  0.532600  0.081600  1.0  0.1383
  H  H86  1  0.186600  0.339500  0.066900  1.0  0.1103
  C  C87  1  0.919500  0.656600  0.638700  1.0  0.6879
  C  C88  1  0.952080  0.625980  0.590760  1.0  -0.1682
  C  C89  1  0.023120  0.587220  0.574440  1.0  0.0287
  C  C90  1  0.910540  0.641140  0.558780  1.0  -0.0369
  C  C91  1  0.049380  0.566380  0.525660  1.0  -0.2188
  C  C92  1  0.937720  0.618720  0.511440  1.0  -0.1098
  C  C93  1  0.006980  0.583780  0.493560  1.0  0.0711
  C  C94  1  0.047470  0.554870  0.445290  1.0  0.0658
  C  C95  1  0.117730  0.517330  0.441210  1.0  -0.2091
  C  C96  1  0.022040  0.561440  0.403980  1.0  -0.1114
  C  C97  1  0.067630  0.531530  0.360810  1.0  -0.0362
  C  C98  1  0.162150  0.483950  0.399150  1.0  -0.0386
  C  C99  1  0.136660  0.490360  0.359820  1.0  -0.1149
  C  C100  1  0.182590  0.451490  0.316830  1.0  0.7074
  C  C101  1  0.340780  0.436180  0.180660  1.0  0.7127
  C  C102  1  0.387300  0.473700  0.138000  1.0  -0.122
  C  C103  1  0.457910  0.440710  0.134070  1.0  -0.0056
  C  C104  1  0.361150  0.537250  0.102450  1.0  0.0279
  C  C105  1  0.504820  0.470220  0.093540  1.0  -0.0944
  C  C106  1  0.405950  0.567150  0.063150  1.0  -0.1935
  C  C107  1  0.477220  0.535120  0.057540  1.0  0.0425
  C  C108  1  0.516880  0.575280  0.010260  1.0  0.0827
  C  C109  1  0.473770  0.636970  0.981490  1.0  -0.2473
  C  C110  1  0.587410  0.559710  0.990970  1.0  -0.1205
  C  C111  1  0.497560  0.684160  0.936220  1.0  -0.0134
  C  C112  1  0.612880  0.604380  0.945760  1.0  -0.0113
  C  C113  1  0.568990  0.666190  0.918730  1.0  -0.1281
  C  C114  1  0.598260  0.714860  0.868120  1.0  0.697
  C  C115  1  0.656600  0.785200  0.638700  1.0  0.688
  C  C116  1  0.625980  0.831180  0.590760  1.0  -0.169
  C  C117  1  0.587220  0.815220  0.574440  1.0  0.0314
  C  C118  1  0.641140  0.889540  0.558780  1.0  -0.0352
  C  C119  1  0.566380  0.858580  0.525660  1.0  -0.2192
  C  C120  1  0.618720  0.932120  0.511440  1.0  -0.1077
  C  C121  1  0.583780  0.915680  0.493560  1.0  0.0737
  C  C122  1  0.554870  0.952370  0.445290  1.0  0.0677
  C  C123  1  0.517330  0.923730  0.441210  1.0  -0.2051
  C  C124  1  0.561440  0.012540  0.403980  1.0  -0.1051
  C  C125  1  0.531530  0.040030  0.360810  1.0  -0.0317
  C  C126  1  0.483950  0.954750  0.399150  1.0  -0.0364
  C  C127  1  0.490360  0.013160  0.359820  1.0  -0.1105
  C  C128  1  0.451490  0.049090  0.316830  1.0  0.7107
  C  C129  1  0.436180  0.042380  0.180660  1.0  0.7169
  C  C130  1  0.473700  0.001000  0.138000  1.0  -0.1219
  C  C131  1  0.440710  0.967310  0.134070  1.0  -0.0045
  C  C132  1  0.537250  0.999150  0.102450  1.0  0.0295
  C  C133  1  0.470220  0.931420  0.093540  1.0  -0.0912
  C  C134  1  0.567150  0.963750  0.063150  1.0  -0.1907
  C  C135  1  0.535120  0.930120  0.057540  1.0  0.0413
  C  C136  1  0.575280  0.897580  0.010260  1.0  0.0794
  C  C137  1  0.636970  0.907770  0.981490  1.0  -0.2487
  C  C138  1  0.559710  0.861910  0.990970  1.0  -0.1181
  C  C139  1  0.684160  0.882060  0.936220  1.0  -0.0123
  C  C140  1  0.604380  0.836980  0.945760  1.0  -0.011
  C  C141  1  0.666190  0.846090  0.918730  1.0  -0.1325
  C  C142  1  0.714860  0.818760  0.868120  1.0  0.6965
  C  C143  1  0.785200  0.919500  0.638700  1.0  0.6843
  C  C144  1  0.831180  0.952080  0.590760  1.0  -0.1672
  C  C145  1  0.815220  0.023120  0.574440  1.0  0.0278
  C  C146  1  0.889540  0.910540  0.558780  1.0  -0.038
  C  C147  1  0.858580  0.049380  0.525660  1.0  -0.2161
  C  C148  1  0.932120  0.937720  0.511440  1.0  -0.1074
  C  C149  1  0.915680  0.006980  0.493560  1.0  0.0747
  C  C150  1  0.952370  0.047470  0.445290  1.0  0.0682
  C  C151  1  0.923730  0.117730  0.441210  1.0  -0.2057
  C  C152  1  0.012540  0.022040  0.403980  1.0  -0.1126
  C  C153  1  0.040030  0.067630  0.360810  1.0  -0.0351
  C  C154  1  0.954750  0.162150  0.399150  1.0  -0.0323
  C  C155  1  0.013160  0.136660  0.359820  1.0  -0.1141
  C  C156  1  0.049090  0.182590  0.316830  1.0  0.7049
  C  C157  1  0.042380  0.340780  0.180660  1.0  0.7202
  C  C158  1  0.001000  0.387300  0.138000  1.0  -0.129
  C  C159  1  0.967310  0.457910  0.134070  1.0  0.0005
  C  C160  1  0.999150  0.361150  0.102450  1.0  0.034
  C  C161  1  0.931420  0.504820  0.093540  1.0  -0.0935
  C  C162  1  0.963750  0.405950  0.063150  1.0  -0.1932
  C  C163  1  0.930120  0.477220  0.057540  1.0  0.0401
  C  C164  1  0.897580  0.516880  0.010260  1.0  0.0778
  C  C165  1  0.907770  0.473770  0.981490  1.0  -0.2475
  C  C166  1  0.861910  0.587410  0.990970  1.0  -0.1167
  C  C167  1  0.882060  0.497560  0.936220  1.0  -0.0159
  C  C168  1  0.836980  0.612880  0.945760  1.0  -0.0133
  C  C169  1  0.846090  0.568990  0.918730  1.0  -0.1348
  C  C170  1  0.818760  0.598260  0.868120  1.0  0.7036
  C  C171  1  0.080500  0.343400  0.361300  1.0  0.6886
  C  C172  1  0.047920  0.374020  0.409240  1.0  -0.168
  C  C173  1  0.976880  0.412780  0.425560  1.0  0.0288
  C  C174  1  0.089460  0.358860  0.441220  1.0  -0.0384
  C  C175  1  0.950620  0.433620  0.474340  1.0  -0.2177
  C  C176  1  0.062280  0.381280  0.488560  1.0  -0.1109
  C  C177  1  0.993020  0.416220  0.506440  1.0  0.0719
  C  C178  1  0.952530  0.445130  0.554710  1.0  0.0662
  C  C179  1  0.882270  0.482670  0.558790  1.0  -0.2068
  C  C180  1  0.977960  0.438560  0.596020  1.0  -0.1121
  C  C181  1  0.932370  0.468470  0.639190  1.0  -0.0382
  C  C182  1  0.837850  0.516050  0.600850  1.0  -0.0372
  C  C183  1  0.863340  0.509640  0.640180  1.0  -0.1165
  C  C184  1  0.817410  0.548510  0.683170  1.0  0.7085
  C  C185  1  0.659220  0.563820  0.819340  1.0  0.7151
  C  C186  1  0.612700  0.526300  0.862000  1.0  -0.1286
  C  C187  1  0.542090  0.559290  0.865930  1.0  -0.0027
  C  C188  1  0.638850  0.462750  0.897550  1.0  0.0287
  C  C189  1  0.495180  0.529780  0.906460  1.0  -0.0956
  C  C190  1  0.594050  0.432850  0.936850  1.0  -0.1936
  C  C191  1  0.522780  0.464880  0.942460  1.0  0.046
  C  C192  1  0.483120  0.424720  0.989740  1.0  0.0799
  C  C193  1  0.526230  0.363030  0.018510  1.0  -0.2456
  C  C194  1  0.412590  0.440290  0.009030  1.0  -0.118
  C  C195  1  0.502440  0.315840  0.063780  1.0  -0.0129
  C  C196  1  0.387120  0.395620  0.054240  1.0  -0.0143
  C  C197  1  0.431010  0.333810  0.081270  1.0  -0.1306
  C  C198  1  0.401740  0.285140  0.131880  1.0  0.6982
  C  C199  1  0.343400  0.214800  0.361300  1.0  0.6882
  C  C200  1  0.374020  0.168820  0.409240  1.0  -0.166
  C  C201  1  0.412780  0.184780  0.425560  1.0  0.0324
  C  C202  1  0.358860  0.110460  0.441220  1.0  -0.0379
  C  C203  1  0.433620  0.141420  0.474340  1.0  -0.2159
  C  C204  1  0.381280  0.067880  0.488560  1.0  -0.1095
  C  C205  1  0.416220  0.084320  0.506440  1.0  0.075
  C  C206  1  0.445130  0.047630  0.554710  1.0  0.0699
  C  C207  1  0.482670  0.076270  0.558790  1.0  -0.2037
  C  C208  1  0.438560  0.987460  0.596020  1.0  -0.107
  C  C209  1  0.468470  0.959970  0.639190  1.0  -0.0288
  C  C210  1  0.516050  0.045250  0.600850  1.0  -0.0379
  C  C211  1  0.509640  0.986840  0.640180  1.0  -0.1108
  C  C212  1  0.548510  0.950910  0.683170  1.0  0.7095
  C  C213  1  0.563820  0.957620  0.819340  1.0  0.7183
  C  C214  1  0.526300  0.999000  0.862000  1.0  -0.126
  C  C215  1  0.559290  0.032690  0.865930  1.0  -0.0012
  C  C216  1  0.462750  0.000850  0.897550  1.0  0.0304
  C  C217  1  0.529780  0.068580  0.906460  1.0  -0.0877
  C  C218  1  0.432850  0.036250  0.936850  1.0  -0.1912
  C  C219  1  0.464880  0.069880  0.942460  1.0  0.04
  C  C220  1  0.424720  0.102420  0.989740  1.0  0.0784
  C  C221  1  0.363030  0.092230  0.018510  1.0  -0.2468
  C  C222  1  0.440290  0.138090  0.009030  1.0  -0.1188
  C  C223  1  0.315840  0.117940  0.063780  1.0  -0.0144
  C  C224  1  0.395620  0.163020  0.054240  1.0  -0.0106
  C  C225  1  0.333810  0.153910  0.081270  1.0  -0.1332
  C  C226  1  0.285140  0.181240  0.131880  1.0  0.6998
  C  C227  1  0.214800  0.080500  0.361300  1.0  0.684
  C  C228  1  0.168820  0.047920  0.409240  1.0  -0.1681
  C  C229  1  0.184780  0.976880  0.425560  1.0  0.029
  C  C230  1  0.110460  0.089460  0.441220  1.0  -0.0382
  C  C231  1  0.141420  0.950620  0.474340  1.0  -0.2196
  C  C232  1  0.067880  0.062280  0.488560  1.0  -0.1101
  C  C233  1  0.084320  0.993020  0.506440  1.0  0.0747
  C  C234  1  0.047630  0.952530  0.554710  1.0  0.0684
  C  C235  1  0.076270  0.882270  0.558790  1.0  -0.2057
  C  C236  1  0.987460  0.977960  0.596020  1.0  -0.1135
  C  C237  1  0.959970  0.932370  0.639190  1.0  -0.0363
  C  C238  1  0.045250  0.837850  0.600850  1.0  -0.0322
  C  C239  1  0.986840  0.863340  0.640180  1.0  -0.1114
  C  C240  1  0.950910  0.817410  0.683170  1.0  0.7042
  C  C241  1  0.957620  0.659220  0.819340  1.0  0.7193
  C  C242  1  0.999000  0.612700  0.862000  1.0  -0.1318
  C  C243  1  0.032690  0.542090  0.865930  1.0  0.0018
  C  C244  1  0.000850  0.638850  0.897550  1.0  0.0324
  C  C245  1  0.068580  0.495180  0.906460  1.0  -0.0894
  C  C246  1  0.036250  0.594050  0.936850  1.0  -0.1949
  C  C247  1  0.069880  0.522780  0.942460  1.0  0.042
  C  C248  1  0.102420  0.483120  0.989740  1.0  0.0781
  C  C249  1  0.092230  0.526230  0.018510  1.0  -0.247
  C  C250  1  0.138090  0.412590  0.009030  1.0  -0.1169
  C  C251  1  0.117940  0.502440  0.063780  1.0  -0.0148
  C  C252  1  0.163020  0.387120  0.054240  1.0  -0.0105
  C  C253  1  0.153910  0.431010  0.081270  1.0  -0.134
  C  C254  1  0.181240  0.401740  0.131880  1.0  0.7023
  S  S255  1  0.135510  0.514460  0.498840  1.0  1.1676
  S  S256  1  0.385140  0.647160  0.012000  1.0  1.1527
  S  S257  1  0.514460  0.851190  0.498840  1.0  1.1677
  S  S258  1  0.647160  0.955700  0.012000  1.0  1.1497
  S  S259  1  0.851190  0.135510  0.498840  1.0  1.1734
  S  S260  1  0.955700  0.385140  0.012000  1.0  1.1444
  S  S261  1  0.864490  0.485540  0.501160  1.0  1.1699
  S  S262  1  0.614860  0.352840  0.988000  1.0  1.1504
  S  S263  1  0.485540  0.148810  0.501160  1.0  1.1708
  S  S264  1  0.352840  0.044300  0.988000  1.0  1.1515
  S  S265  1  0.148810  0.864490  0.501160  1.0  1.1642
  S  S266  1  0.044300  0.614860  0.988000  1.0  1.1523
  O  O267  1  0.241780  0.406680  0.321060  1.0  -0.5998
  O  O268  1  0.156450  0.466550  0.277950  1.0  -0.6081
  O  O269  1  0.958900  0.640700  0.667800  1.0  -0.5916
  O  O270  1  0.857050  0.696150  0.648750  1.0  -0.5388
  O  O271  1  0.179070  0.550570  0.480990  1.0  -0.5134
  O  O272  1  0.154650  0.445350  0.535950  1.0  -0.565
  O  O273  1  0.661590  0.692690  0.847930  1.0  -0.5746
  O  O274  1  0.554630  0.774530  0.852010  1.0  -0.5931
  O  O275  1  0.365650  0.382050  0.216150  1.0  -0.5908
  O  O276  1  0.280190  0.463190  0.176430  1.0  -0.6038
  O  O277  1  0.360100  0.644000  0.973600  1.0  -0.5311
  O  O278  1  0.344300  0.703100  0.036900  1.0  -0.5052
  O  O279  1  0.755960  0.672360  0.746920  1.0  -0.7137
  O  O280  1  0.406680  0.030480  0.321060  1.0  -0.599
  O  O281  1  0.466550  0.099050  0.277950  1.0  -0.6085
  O  O282  1  0.640700  0.732600  0.667800  1.0  -0.5904
  O  O283  1  0.696150  0.798050  0.648750  1.0  -0.5123
  O  O284  1  0.550570  0.789370  0.480990  1.0  -0.5118
  O  O285  1  0.445350  0.864050  0.535950  1.0  -0.5556
  O  O286  1  0.692690  0.797790  0.847930  1.0  -0.5743
  O  O287  1  0.774530  0.818830  0.852010  1.0  -0.5887
  O  O288  1  0.382050  0.036150  0.216150  1.0  -0.5914
  O  O289  1  0.463190  0.080190  0.176430  1.0  -0.6031
  O  O290  1  0.644000  0.022300  0.973600  1.0  -0.5246
  O  O291  1  0.703100  0.915700  0.036900  1.0  -0.5026
  O  O292  1  0.672360  0.824760  0.746920  1.0  -0.7119
  O  O293  1  0.030480  0.241780  0.321060  1.0  -0.6
  O  O294  1  0.099050  0.156450  0.277950  1.0  -0.6098
  O  O295  1  0.732600  0.958900  0.667800  1.0  -0.5931
  O  O296  1  0.798050  0.857050  0.648750  1.0  -0.5133
  O  O297  1  0.789370  0.179070  0.480990  1.0  -0.5217
  O  O298  1  0.864050  0.154650  0.535950  1.0  -0.559
  O  O299  1  0.797790  0.661590  0.847930  1.0  -0.5752
  O  O300  1  0.818830  0.554630  0.852010  1.0  -0.5889
  O  O301  1  0.036150  0.365650  0.216150  1.0  -0.5932
  O  O302  1  0.080190  0.280190  0.176430  1.0  -0.607
  O  O303  1  0.022300  0.360100  0.973600  1.0  -0.5244
  O  O304  1  0.915700  0.344300  0.036900  1.0  -0.5028
  O  O305  1  0.824760  0.755960  0.746920  1.0  -0.7206
  O  O306  1  0.758220  0.593320  0.678940  1.0  -0.5986
  O  O307  1  0.843550  0.533450  0.722050  1.0  -0.6102
  O  O308  1  0.041100  0.359300  0.332200  1.0  -0.5923
  O  O309  1  0.142950  0.303850  0.351250  1.0  -0.54
  O  O310  1  0.820930  0.449430  0.519010  1.0  -0.5115
  O  O311  1  0.845350  0.554650  0.464050  1.0  -0.5626
  O  O312  1  0.338410  0.307310  0.152070  1.0  -0.574
  O  O313  1  0.445370  0.225470  0.147990  1.0  -0.5914
  O  O314  1  0.634350  0.617950  0.783850  1.0  -0.592
  O  O315  1  0.719810  0.536810  0.823570  1.0  -0.6033
  O  O316  1  0.639900  0.356000  0.026400  1.0  -0.5327
  O  O317  1  0.655700  0.296900  0.963100  1.0  -0.5055
  O  O318  1  0.244040  0.327640  0.253080  1.0  -0.7144
  O  O319  1  0.593320  0.969520  0.678940  1.0  -0.5997
  O  O320  1  0.533450  0.900950  0.722050  1.0  -0.6053
  O  O321  1  0.359300  0.267400  0.332200  1.0  -0.5917
  O  O322  1  0.303850  0.201950  0.351250  1.0  -0.5136
  O  O323  1  0.449430  0.210630  0.519010  1.0  -0.5093
  O  O324  1  0.554650  0.135950  0.464050  1.0  -0.5573
  O  O325  1  0.307310  0.202210  0.152070  1.0  -0.5744
  O  O326  1  0.225470  0.181170  0.147990  1.0  -0.5887
  O  O327  1  0.617950  0.963850  0.783850  1.0  -0.5927
  O  O328  1  0.536810  0.919810  0.823570  1.0  -0.6052
  O  O329  1  0.356000  0.977700  0.026400  1.0  -0.5257
  O  O330  1  0.296900  0.084300  0.963100  1.0  -0.5032
  O  O331  1  0.327640  0.175240  0.253080  1.0  -0.7122
  O  O332  1  0.969520  0.758220  0.678940  1.0  -0.6002
  O  O333  1  0.900950  0.843550  0.722050  1.0  -0.6092
  O  O334  1  0.267400  0.041100  0.332200  1.0  -0.5919
  O  O335  1  0.201950  0.142950  0.351250  1.0  -0.5126
  O  O336  1  0.210630  0.820930  0.519010  1.0  -0.5257
  O  O337  1  0.135950  0.845350  0.464050  1.0  -0.5632
  O  O338  1  0.202210  0.338410  0.152070  1.0  -0.575
  O  O339  1  0.181170  0.445370  0.147990  1.0  -0.5899
  O  O340  1  0.963850  0.634350  0.783850  1.0  -0.5915
  O  O341  1  0.919810  0.719810  0.823570  1.0  -0.6081
  O  O342  1  0.977700  0.639900  0.026400  1.0  -0.5244
  O  O343  1  0.084300  0.655700  0.963100  1.0  -0.5021
  O  O344  1  0.175240  0.244040  0.253080  1.0  -0.7204
