# generated using pymatgen
data_Zn6H30C70S5O32
_symmetry_space_group_name_H-M   'P 1'
_cell_length_a   21.44100000
_cell_length_b   23.21200000
_cell_length_c   24.64600000
_cell_angle_alpha   68.10000000
_cell_angle_beta   67.49000000
_cell_angle_gamma   79.99000000
_symmetry_Int_Tables_number   1
_chemical_formula_structural   Zn6H30C70S5O32
_chemical_formula_sum   'Zn12 H60 C140 S10 O64'
_cell_volume   10506.90171692
_cell_formula_units_Z   2
loop_
 _symmetry_equiv_pos_site_id
 _symmetry_equiv_pos_as_xyz
  1  'x, y, z'
loop_
 _atom_site_type_symbol
 _atom_site_label
 _atom_site_symmetry_multiplicity
 _atom_site_fract_x
 _atom_site_fract_y
 _atom_site_fract_z
 _atom_site_occupancy
 _atom_site_charge
  Zn  Zn1  1  0.742030  0.189200  0.226610  1.0  1.0454
  Zn  Zn2  1  0.093230  0.800130  0.807710  1.0  1.0482
  Zn  Zn3  1  0.759220  0.308720  0.092340  1.0  1.08
  Zn  Zn4  1  0.830550  0.083280  0.274530  1.0  1.0498
  Zn  Zn5  1  0.197420  0.795600  0.677780  1.0  1.0139
  Zn  Zn6  1  0.318980  0.674220  0.763680  1.0  1.048
  Zn  Zn7  1  0.257970  0.810800  0.773390  1.0  1.0476
  Zn  Zn8  1  0.906770  0.199870  0.192290  1.0  1.0491
  Zn  Zn9  1  0.240780  0.691280  0.907660  1.0  1.0797
  Zn  Zn10  1  0.169450  0.916720  0.725470  1.0  1.0497
  Zn  Zn11  1  0.802580  0.204400  0.322220  1.0  1.012
  Zn  Zn12  1  0.681020  0.325780  0.236320  1.0  1.0476
  H  H13  1  0.320900  0.869300  0.583000  1.0  0.1192
  H  H14  1  0.490000  0.771500  0.596000  1.0  0.1391
  H  H15  1  0.382000  0.947500  0.500000  1.0  0.1202
  H  H16  1  0.464000  0.027600  0.414000  1.0  0.1448
  H  H17  1  0.551600  0.088500  0.341000  1.0  0.1197
  H  H18  1  0.685800  0.952600  0.388000  1.0  0.1348
  H  H19  1  0.918400  0.971300  0.411700  1.0  0.1362
  H  H20  1  0.789400  0.081000  0.500100  1.0  0.1226
  H  H21  1  0.821300  0.034200  0.586700  1.0  0.14
  H  H22  1  0.875400  0.970200  0.668900  1.0  0.1335
  H  H23  1  0.050000  0.836400  0.595300  1.0  0.134
  H  H24  1  0.941900  0.907900  0.729700  1.0  0.1279
  H  H25  1  0.455600  0.538800  0.848400  1.0  0.142
  H  H26  1  0.277200  0.516900  0.989000  1.0  0.1162
  H  H27  1  0.326300  0.446000  0.056900  1.0  0.1344
  H  H28  1  0.399600  0.368600  0.116400  1.0  0.1393
  H  H29  1  0.480600  0.309800  0.155600  1.0  0.1239
  H  H30  1  0.625100  0.373500  0.991100  1.0  0.1412
  H  H31  1  0.796300  0.461800  0.169000  1.0  0.1409
  H  H32  1  0.948100  0.340900  0.203600  1.0  0.1241
  H  H33  1  0.027300  0.414100  0.132100  1.0  0.1391
  H  H34  1  0.099800  0.497400  0.040100  1.0  0.1301
  H  H35  1  0.148600  0.582600  0.958000  1.0  0.1135
  H  H36  1  0.965400  0.666900  0.969100  1.0  0.1269
  H  H37  1  0.988000  0.869500  0.960200  1.0  0.1139
  H  H38  1  0.035600  0.035800  0.826700  1.0  0.138
  H  H39  1  0.922900  0.912800  0.029300  1.0  0.1312
  H  H40  1  0.847000  0.978300  0.097300  1.0  0.1308
  H  H41  1  0.871700  0.188100  0.983800  1.0  0.1264
  H  H42  1  0.799900  0.050000  0.144800  1.0  0.1234
  H  H43  1  0.679100  0.130700  0.417000  1.0  0.1205
  H  H44  1  0.510000  0.228500  0.404000  1.0  0.1403
  H  H45  1  0.618000  0.052500  0.500000  1.0  0.1204
  H  H46  1  0.536000  0.972400  0.586000  1.0  0.1434
  H  H47  1  0.448400  0.911500  0.659000  1.0  0.1189
  H  H48  1  0.314200  0.047400  0.612000  1.0  0.1347
  H  H49  1  0.081600  0.028700  0.588300  1.0  0.1364
  H  H50  1  0.210600  0.919000  0.499900  1.0  0.1225
  H  H51  1  0.178700  0.965800  0.413300  1.0  0.1402
  H  H52  1  0.124600  0.029800  0.331100  1.0  0.1326
  H  H53  1  0.950000  0.163600  0.404700  1.0  0.1351
  H  H54  1  0.058100  0.092100  0.270300  1.0  0.1272
  H  H55  1  0.544400  0.461200  0.151600  1.0  0.1422
  H  H56  1  0.722800  0.483100  0.011000  1.0  0.116
  H  H57  1  0.673700  0.554000  0.943100  1.0  0.1345
  H  H58  1  0.600400  0.631400  0.883600  1.0  0.1396
  H  H59  1  0.519400  0.690200  0.844400  1.0  0.1242
  H  H60  1  0.374900  0.626500  0.008900  1.0  0.142
  H  H61  1  0.203700  0.538200  0.831000  1.0  0.1407
  H  H62  1  0.051900  0.659100  0.796400  1.0  0.124
  H  H63  1  0.972700  0.585900  0.867900  1.0  0.1392
  H  H64  1  0.900200  0.502600  0.959900  1.0  0.1297
  H  H65  1  0.851400  0.417400  0.042000  1.0  0.1135
  H  H66  1  0.034600  0.333100  0.030900  1.0  0.1261
  H  H67  1  0.012000  0.130500  0.039800  1.0  0.1127
  H  H68  1  0.964400  0.964200  0.173300  1.0  0.1383
  H  H69  1  0.077100  0.087200  0.970700  1.0  0.1351
  H  H70  1  0.153000  0.021700  0.902700  1.0  0.1311
  H  H71  1  0.128300  0.811900  0.016200  1.0  0.1266
  H  H72  1  0.200100  0.950000  0.855200  1.0  0.1237
  C  C73  1  0.360400  0.765900  0.657500  1.0  0.6932
  C  C74  1  0.400000  0.813600  0.598300  1.0  -0.0852
  C  C75  1  0.367800  0.865900  0.568800  1.0  -0.0651
  C  C76  1  0.468100  0.807200  0.577200  1.0  -0.0303
  C  C77  1  0.404500  0.912500  0.518900  1.0  -0.097
  C  C78  1  0.504900  0.855700  0.526100  1.0  -0.2389
  C  C79  1  0.473800  0.908800  0.496000  1.0  0.0998
  C  C80  1  0.521300  0.954000  0.445600  1.0  0.0838
  C  C81  1  0.508300  0.012800  0.409200  1.0  -0.1491
  C  C82  1  0.588300  0.933600  0.438400  1.0  -0.2108
  C  C83  1  0.560800  0.049000  0.365900  1.0  -0.0133
  C  C84  1  0.641700  0.968500  0.394000  1.0  0.0246
  C  C85  1  0.628200  0.028700  0.357800  1.0  -0.1294
  C  C86  1  0.686500  0.070100  0.310500  1.0  0.6956
  C  C87  1  0.829300  0.066000  0.392100  1.0  0.6893
  C  C88  1  0.850300  0.031100  0.448600  1.0  -0.1436
  C  C89  1  0.899000  0.983700  0.446600  1.0  0.0245
  C  C90  1  0.822200  0.048900  0.500100  1.0  -0.0319
  C  C91  1  0.840700  0.021000  0.552300  1.0  -0.1303
  C  C92  1  0.917400  0.956100  0.497400  1.0  -0.1779
  C  C93  1  0.889700  0.972200  0.551800  1.0  0.0505
  C  C94  1  0.922300  0.937300  0.598400  1.0  0.0077
  C  C95  1  0.909400  0.943100  0.654400  1.0  -0.0648
  C  C96  1  0.973200  0.896000  0.578500  1.0  -0.1892
  C  C97  1  0.001600  0.866800  0.666667  1.0  -0.1198
  C  C98  1  0.047100  0.834300  0.707400  1.0  0.6907
  C  C99  1  0.014600  0.861800  0.611200  1.0  0.0086
  C  C100  1  0.949900  0.905900  0.690600  1.0  -0.0361
  C  C101  1  0.325600  0.582800  0.870900  1.0  0.68
  C  C102  1  0.360000  0.534500  0.912400  1.0  -0.1295
  C  C103  1  0.429400  0.519900  0.889900  1.0  0.0212
  C  C104  1  0.323100  0.506700  0.974300  1.0  -0.0149
  C  C105  1  0.457600  0.476600  0.931200  1.0  -0.1887
  C  C106  1  0.352200  0.464100  0.015100  1.0  -0.1115
  C  C107  1  0.420400  0.448300  0.993500  1.0  0.0479
  C  C108  1  0.463300  0.405900  0.027400  1.0  0.0575
  C  C109  1  0.444600  0.369700  0.090500  1.0  -0.1008
  C  C110  1  0.529500  0.404900  0.992200  1.0  -0.1738
  C  C111  1  0.493700  0.335400  0.114000  1.0  -0.0354
  C  C112  1  0.579900  0.372000  0.016600  1.0  -0.0414
  C  C113  1  0.560500  0.337700  0.078600  1.0  -0.1168
  C  C114  1  0.611000  0.306500  0.107600  1.0  0.7086
  C  C115  1  0.812600  0.345700  0.233600  1.0  0.7544
  C  C116  1  0.863300  0.392600  0.192900  1.0  -0.1523
  C  C117  1  0.842000  0.451600  0.162000  1.0  -0.0668
  C  C118  1  0.933700  0.379700  0.181800  1.0  -0.0192
  C  C119  1  0.981500  0.423600  0.139100  1.0  -0.092
  C  C120  1  0.891400  0.495700  0.120000  1.0  -0.2259
  C  C121  1  0.960400  0.480900  0.107700  1.0  0.0554
  C  C122  1  0.002900  0.529600  0.054600  1.0  0.0765
  C  C123  1  0.072800  0.531200  0.025900  1.0  -0.1119
  C  C124  1  0.964000  0.582800  0.031500  1.0  -0.1666
  C  C125  1  0.101800  0.582200  0.977000  1.0  0.0041
  C  C126  1  0.992200  0.633000  0.983400  1.0  0.0223
  C  C127  1  0.062700  0.633800  0.954800  1.0  -0.1578
  C  C128  1  0.096800  0.688200  0.899800  1.0  0.6862
  C  C129  1  0.064300  0.916400  0.841200  1.0  0.6926
  C  C130  1  0.021100  0.947200  0.884400  1.0  -0.087
  C  C131  1  0.983900  0.912600  0.947600  1.0  -0.0295
  C  C132  1  0.012800  0.010900  0.867300  1.0  0.0301
  C  C133  1  0.944800  0.937800  0.988500  1.0  -0.1209
  C  C134  1  0.971000  0.037300  0.910000  1.0  -0.1457
  C  C135  1  0.935400  0.002000  0.971700  1.0  0.0252
  C  C136  1  0.895100  0.038200  0.011500  1.0  0.0614
  C  C137  1  0.854000  0.020200  0.074400  1.0  -0.0748
  C  C138  1  0.898500  0.104500  0.978200  1.0  -0.1737
  C  C139  1  0.867700  0.145800  0.006400  1.0  0.048
  C  C140  1  0.824500  0.063100  0.102200  1.0  -0.035
  C  C141  1  0.829800  0.126300  0.069100  1.0  -0.1517
  C  C142  1  0.797100  0.168400  0.104100  1.0  0.7249
  C  C143  1  0.639600  0.234100  0.342500  1.0  0.6964
  C  C144  1  0.600000  0.186400  0.401700  1.0  -0.0841
  C  C145  1  0.632200  0.134100  0.431200  1.0  -0.0626
  C  C146  1  0.531900  0.192800  0.422800  1.0  -0.0327
  C  C147  1  0.595500  0.087500  0.481100  1.0  -0.0993
  C  C148  1  0.495100  0.144300  0.473900  1.0  -0.2394
  C  C149  1  0.526200  0.091200  0.504000  1.0  0.1024
  C  C150  1  0.478700  0.046000  0.554400  1.0  0.0864
  C  C151  1  0.491700  0.987200  0.590800  1.0  -0.1531
  C  C152  1  0.411700  0.066400  0.561600  1.0  -0.2099
  C  C153  1  0.439200  0.951000  0.634100  1.0  -0.011
  C  C154  1  0.358300  0.031500  0.606000  1.0  0.0231
  C  C155  1  0.371800  0.971300  0.642200  1.0  -0.1302
  C  C156  1  0.313500  0.929900  0.689500  1.0  0.6948
  C  C157  1  0.170700  0.934000  0.607900  1.0  0.6898
  C  C158  1  0.149700  0.968900  0.551400  1.0  -0.1452
  C  C159  1  0.101000  0.016300  0.553400  1.0  0.0226
  C  C160  1  0.177800  0.951100  0.499900  1.0  -0.0343
  C  C161  1  0.159300  0.979000  0.447700  1.0  -0.1306
  C  C162  1  0.082600  0.043900  0.502600  1.0  -0.1711
  C  C163  1  0.110300  0.027800  0.448200  1.0  0.0511
  C  C164  1  0.077700  0.062700  0.401600  1.0  0.01
  C  C165  1  0.090600  0.056900  0.345600  1.0  -0.063
  C  C166  1  0.026800  0.104000  0.421500  1.0  -0.1875
  C  C167  1  0.998400  0.133200  0.333333  1.0  -0.1172
  C  C168  1  0.952900  0.165700  0.292600  1.0  0.694
  C  C169  1  0.985400  0.138200  0.388800  1.0  0.0068
  C  C170  1  0.050100  0.094100  0.309400  1.0  -0.0358
  C  C171  1  0.674400  0.417200  0.129100  1.0  0.6795
  C  C172  1  0.640000  0.465500  0.087600  1.0  -0.1303
  C  C173  1  0.570600  0.480100  0.110100  1.0  0.0227
  C  C174  1  0.676900  0.493300  0.025700  1.0  -0.0134
  C  C175  1  0.542400  0.523400  0.068800  1.0  -0.1872
  C  C176  1  0.647800  0.535900  0.984900  1.0  -0.1114
  C  C177  1  0.579600  0.551700  0.006500  1.0  0.0496
  C  C178  1  0.536700  0.594100  0.972600  1.0  0.0578
  C  C179  1  0.555400  0.630300  0.909500  1.0  -0.1027
  C  C180  1  0.470500  0.595100  0.007800  1.0  -0.171
  C  C181  1  0.506300  0.664600  0.886000  1.0  -0.0331
  C  C182  1  0.420100  0.628000  0.983400  1.0  -0.0381
  C  C183  1  0.439500  0.662300  0.921400  1.0  -0.1196
  C  C184  1  0.389000  0.693500  0.892400  1.0  0.7096
  C  C185  1  0.187400  0.654300  0.766400  1.0  0.758
  C  C186  1  0.136700  0.607400  0.807100  1.0  -0.1567
  C  C187  1  0.158000  0.548400  0.838000  1.0  -0.0644
  C  C188  1  0.066300  0.620300  0.818200  1.0  -0.0208
  C  C189  1  0.018500  0.576400  0.860900  1.0  -0.0905
  C  C190  1  0.108600  0.504300  0.880000  1.0  -0.2296
  C  C191  1  0.039600  0.519100  0.892300  1.0  0.0543
  C  C192  1  0.997100  0.470400  0.945400  1.0  0.0757
  C  C193  1  0.927200  0.468800  0.974100  1.0  -0.1145
  C  C194  1  0.036000  0.417200  0.968500  1.0  -0.1675
  C  C195  1  0.898200  0.417800  0.023000  1.0  0.0092
  C  C196  1  0.007800  0.367000  0.016600  1.0  0.0224
  C  C197  1  0.937300  0.366200  0.045200  1.0  -0.1564
  C  C198  1  0.903200  0.311800  0.100200  1.0  0.6872
  C  C199  1  0.935700  0.083600  0.158800  1.0  0.6885
  C  C200  1  0.978900  0.052800  0.115600  1.0  -0.0866
  C  C201  1  0.016100  0.087400  0.052400  1.0  -0.0283
  C  C202  1  0.987200  0.989100  0.132700  1.0  0.0263
  C  C203  1  0.055200  0.062200  0.011500  1.0  -0.1227
  C  C204  1  0.029000  0.962700  0.090000  1.0  -0.1466
  C  C205  1  0.064600  0.998000  0.028300  1.0  0.026
  C  C206  1  0.104900  0.961800  0.988500  1.0  0.063
  C  C207  1  0.146000  0.979800  0.925600  1.0  -0.0734
  C  C208  1  0.101500  0.895500  0.021800  1.0  -0.1708
  C  C209  1  0.132300  0.854200  0.993600  1.0  0.049
  C  C210  1  0.175500  0.936900  0.897800  1.0  -0.026
  C  C211  1  0.170200  0.873700  0.930900  1.0  -0.1522
  C  C212  1  0.202900  0.831600  0.895900  1.0  0.728
  S  S213  1  0.593930  0.858770  0.490610  1.0  1.1326
  S  S214  1  0.976770  0.893010  0.507050  1.0  1.1278
  S  S215  1  0.543010  0.451080  0.912770  1.0  1.1814
  S  S216  1  0.876810  0.572110  0.074170  1.0  1.1549
  S  S217  1  0.952010  0.117500  0.899810  1.0  1.1385
  S  S218  1  0.406070  0.141230  0.509390  1.0  1.1395
  S  S219  1  0.023230  0.106990  0.492950  1.0  1.1291
  S  S220  1  0.456990  0.548920  0.087230  1.0  1.1894
  S  S221  1  0.123190  0.427890  0.925830  1.0  1.1545
  S  S222  1  0.047990  0.882500  0.100190  1.0  1.1333
  O  O223  1  0.390780  0.717900  0.683210  1.0  -0.5749
  O  O224  1  0.297300  0.776670  0.680800  1.0  -0.7643
  O  O225  1  0.745000  0.044830  0.302140  1.0  -0.5933
  O  O226  1  0.672040  0.125800  0.285660  1.0  -0.5568
  O  O227  1  0.623800  0.860000  0.532400  1.0  -0.5063
  O  O228  1  0.621500  0.814600  0.457100  1.0  -0.5326
  O  O229  1  0.787000  0.110600  0.392180  1.0  -0.5909
  O  O230  1  0.860700  0.045500  0.346800  1.0  -0.5783
  O  O231  1  0.098700  0.810130  0.677100  1.0  -0.6135
  O  O232  1  0.029100  0.832200  0.762800  1.0  -0.5775
  O  O233  1  0.041600  0.911600  0.459900  1.0  -0.5479
  O  O234  1  0.949900  0.836600  0.516300  1.0  -0.4897
  O  O235  1  0.267500  0.601650  0.893050  1.0  -0.607
  O  O236  1  0.363280  0.602850  0.812700  1.0  -0.5884
  O  O237  1  0.673000  0.316840  0.072220  1.0  -0.6145
  O  O238  1  0.594700  0.271540  0.163300  1.0  -0.4999
  O  O239  1  0.587800  0.500700  0.890600  1.0  -0.5311
  O  O240  1  0.559800  0.412800  0.875800  1.0  -0.5124
  O  O241  1  0.751400  0.362400  0.242050  1.0  -0.6121
  O  O242  1  0.834880  0.291900  0.256530  1.0  -0.6633
  O  O243  1  0.054830  0.726500  0.875420  1.0  -0.6058
  O  O244  1  0.157600  0.697020  0.880980  1.0  -0.5922
  O  O245  1  0.841310  0.573550  0.034500  1.0  -0.5566
  O  O246  1  0.849900  0.611400  0.112300  1.0  -0.5327
  O  O247  1  0.101500  0.950320  0.788100  1.0  -0.5782
  O  O248  1  0.063800  0.857300  0.857020  1.0  -0.6111
  O  O249  1  0.772100  0.148000  0.163400  1.0  -0.6008
  O  O250  1  0.797000  0.227400  0.071900  1.0  -0.6535
  O  O251  1  0.010900  0.148400  0.887500  1.0  -0.4973
  O  O252  1  0.914300  0.143800  0.858100  1.0  -0.5356
  O  O253  1  0.819520  0.173190  0.250850  1.0  -1.0242
  O  O254  1  0.703550  0.269150  0.188650  1.0  -0.7443
  O  O255  1  0.609220  0.282100  0.316790  1.0  -0.5726
  O  O256  1  0.702700  0.223330  0.319200  1.0  -0.7634
  O  O257  1  0.255000  0.955170  0.697860  1.0  -0.5926
  O  O258  1  0.327960  0.874200  0.714340  1.0  -0.5567
  O  O259  1  0.376200  0.140000  0.467600  1.0  -0.5073
  O  O260  1  0.378500  0.185400  0.542900  1.0  -0.532
  O  O261  1  0.213000  0.889400  0.607820  1.0  -0.5903
  O  O262  1  0.139300  0.954500  0.653200  1.0  -0.5787
  O  O263  1  0.901300  0.189870  0.322900  1.0  -0.6122
  O  O264  1  0.970900  0.167800  0.237200  1.0  -0.5741
  O  O265  1  0.958400  0.088400  0.540100  1.0  -0.5458
  O  O266  1  0.050100  0.163400  0.483700  1.0  -0.4858
  O  O267  1  0.732500  0.398350  0.106950  1.0  -0.6076
  O  O268  1  0.636720  0.397150  0.187300  1.0  -0.5819
  O  O269  1  0.327000  0.683160  0.927780  1.0  -0.6131
  O  O270  1  0.405300  0.728460  0.836700  1.0  -0.498
  O  O271  1  0.412200  0.499300  0.109400  1.0  -0.5339
  O  O272  1  0.440200  0.587200  0.124200  1.0  -0.5119
  O  O273  1  0.248600  0.637600  0.757950  1.0  -0.6141
  O  O274  1  0.165120  0.708100  0.743470  1.0  -0.6623
  O  O275  1  0.945170  0.273500  0.124580  1.0  -0.6064
  O  O276  1  0.842400  0.302980  0.119020  1.0  -0.5914
  O  O277  1  0.158690  0.426450  0.965500  1.0  -0.563
  O  O278  1  0.150100  0.388600  0.887700  1.0  -0.5323
  O  O279  1  0.898500  0.049680  0.211900  1.0  -0.576
  O  O280  1  0.936200  0.142700  0.142980  1.0  -0.6115
  O  O281  1  0.227900  0.852000  0.836600  1.0  -0.6046
  O  O282  1  0.203000  0.772600  0.928100  1.0  -0.6543
  O  O283  1  0.989100  0.851600  0.112500  1.0  -0.4966
  O  O284  1  0.085700  0.856200  0.141900  1.0  -0.535
  O  O285  1  0.180480  0.826810  0.749150  1.0  -1.0247
  O  O286  1  0.296450  0.730850  0.811350  1.0  -0.7456
