# generated using pymatgen
data_Co3H12C20N8(ClO4)2
_symmetry_space_group_name_H-M   'P 1'
_cell_length_a   11.35280000
_cell_length_b   11.35280000
_cell_length_c   23.14500000
_cell_angle_alpha   90.00000000
_cell_angle_beta   90.00000000
_cell_angle_gamma   90.00000000
_symmetry_Int_Tables_number   1
_chemical_formula_structural   Co3H12C20N8(ClO4)2
_chemical_formula_sum   'Co12 H48 C80 N32 Cl8 O32'
_cell_volume   2983.06804016
_cell_formula_units_Z   4
loop_
 _symmetry_equiv_pos_site_id
 _symmetry_equiv_pos_as_xyz
  1  'x, y, z'
loop_
 _atom_site_type_symbol
 _atom_site_label
 _atom_site_symmetry_multiplicity
 _atom_site_fract_x
 _atom_site_fract_y
 _atom_site_fract_z
 _atom_site_occupancy
 _atom_site_charge
  Co  Co1  1  0.250000  0.750000  0.250000  1.0  0.5208
  Co  Co2  1  0.750000  0.250000  0.250000  1.0  0.5208
  Co  Co3  1  0.750000  0.250000  0.750000  1.0  0.5208
  Co  Co4  1  0.250000  0.750000  0.750000  1.0  0.5208
  Co  Co5  1  0.000000  0.000000  0.000000  1.0  1.0669
  Co  Co6  1  0.500000  0.500000  0.000000  1.0  1.0669
  Co  Co7  1  0.500000  0.000000  0.000000  1.0  1.0669
  Co  Co8  1  0.000000  0.500000  0.000000  1.0  1.0669
  Co  Co9  1  0.000000  0.500000  0.500000  1.0  1.0669
  Co  Co10  1  0.500000  0.000000  0.500000  1.0  1.0669
  Co  Co11  1  0.500000  0.500000  0.500000  1.0  1.0669
  Co  Co12  1  0.000000  0.000000  0.500000  1.0  1.0669
  H  H13  1  0.115700  0.095600  0.122600  1.0  0.0845
  H  H14  1  0.184500  0.007800  0.204100  1.0  0.0811
  H  H15  1  0.105300  0.699200  0.142100  1.0  0.0795
  H  H16  1  0.384300  0.404400  0.122600  1.0  0.0843
  H  H17  1  0.315500  0.492200  0.204100  1.0  0.0811
  H  H18  1  0.394700  0.800800  0.142100  1.0  0.0791
  H  H19  1  0.404400  0.115700  0.122600  1.0  0.0866
  H  H20  1  0.492200  0.184500  0.204100  1.0  0.0807
  H  H21  1  0.800800  0.105300  0.142100  1.0  0.0814
  H  H22  1  0.095600  0.384300  0.122600  1.0  0.0872
  H  H23  1  0.007800  0.315500  0.204100  1.0  0.0809
  H  H24  1  0.699200  0.394700  0.142100  1.0  0.0817
  H  H25  1  0.884300  0.595600  0.377400  1.0  0.084
  H  H26  1  0.815500  0.507800  0.295900  1.0  0.0816
  H  H27  1  0.894700  0.199200  0.357900  1.0  0.0789
  H  H28  1  0.615700  0.904400  0.377400  1.0  0.0847
  H  H29  1  0.684500  0.992200  0.295900  1.0  0.0812
  H  H30  1  0.605300  0.300800  0.357900  1.0  0.0792
  H  H31  1  0.595600  0.615700  0.377400  1.0  0.0869
  H  H32  1  0.507800  0.684500  0.295900  1.0  0.0812
  H  H33  1  0.199200  0.605300  0.357900  1.0  0.0812
  H  H34  1  0.904400  0.884300  0.377400  1.0  0.0864
  H  H35  1  0.992200  0.815500  0.295900  1.0  0.0811
  H  H36  1  0.300800  0.894700  0.357900  1.0  0.0811
  H  H37  1  0.884300  0.904400  0.877400  1.0  0.084
  H  H38  1  0.815500  0.992200  0.795900  1.0  0.0813
  H  H39  1  0.894700  0.300800  0.857900  1.0  0.0791
  H  H40  1  0.615700  0.595600  0.877400  1.0  0.0845
  H  H41  1  0.684500  0.507800  0.795900  1.0  0.0813
  H  H42  1  0.605300  0.199200  0.857900  1.0  0.0788
  H  H43  1  0.595600  0.884300  0.877400  1.0  0.087
  H  H44  1  0.507800  0.815500  0.795900  1.0  0.0812
  H  H45  1  0.199200  0.894700  0.857900  1.0  0.0815
  H  H46  1  0.904400  0.615700  0.877400  1.0  0.0866
  H  H47  1  0.992200  0.684500  0.795900  1.0  0.081
  H  H48  1  0.300800  0.605300  0.857900  1.0  0.0809
  H  H49  1  0.115700  0.404400  0.622600  1.0  0.0849
  H  H50  1  0.184500  0.492200  0.704100  1.0  0.081
  H  H51  1  0.105300  0.800800  0.642100  1.0  0.0796
  H  H52  1  0.384300  0.095600  0.622600  1.0  0.084
  H  H53  1  0.315500  0.007800  0.704100  1.0  0.0813
  H  H54  1  0.394700  0.699200  0.642100  1.0  0.0792
  H  H55  1  0.404400  0.384300  0.622600  1.0  0.0863
  H  H56  1  0.492200  0.315500  0.704100  1.0  0.0809
  H  H57  1  0.800800  0.394700  0.642100  1.0  0.0811
  H  H58  1  0.095600  0.115700  0.622600  1.0  0.087
  H  H59  1  0.007800  0.184500  0.704100  1.0  0.0807
  H  H60  1  0.699200  0.105300  0.642100  1.0  0.0816
  C  C61  1  0.068500  0.833100  0.088200  1.0  0.0859
  C  C62  1  0.114600  0.013900  0.125300  1.0  0.1133
  C  C63  1  0.155700  0.960700  0.174400  1.0  0.1565
  C  C64  1  0.109800  0.780600  0.138300  1.0  0.1461
  C  C65  1  0.017900  0.762400  0.038800  1.0  0.6876
  C  C66  1  0.431500  0.666900  0.088200  1.0  0.086
  C  C67  1  0.385400  0.486100  0.125300  1.0  0.1119
  C  C68  1  0.344300  0.539300  0.174400  1.0  0.1562
  C  C69  1  0.390200  0.719400  0.138300  1.0  0.1459
  C  C70  1  0.482100  0.737600  0.038800  1.0  0.687
  C  C71  1  0.666900  0.068500  0.088200  1.0  0.0844
  C  C72  1  0.486100  0.114600  0.125300  1.0  0.1127
  C  C73  1  0.539300  0.155700  0.174400  1.0  0.158
  C  C74  1  0.719400  0.109800  0.138300  1.0  0.1458
  C  C75  1  0.737600  0.017900  0.038800  1.0  0.6862
  C  C76  1  0.833100  0.431500  0.088200  1.0  0.0839
  C  C77  1  0.013900  0.385400  0.125300  1.0  0.1133
  C  C78  1  0.960700  0.344300  0.174400  1.0  0.1584
  C  C79  1  0.780600  0.390200  0.138300  1.0  0.1452
  C  C80  1  0.762400  0.482100  0.038800  1.0  0.6859
  C  C81  1  0.931500  0.333100  0.411800  1.0  0.0857
  C  C82  1  0.885400  0.513900  0.374700  1.0  0.1129
  C  C83  1  0.844300  0.460700  0.325600  1.0  0.1564
  C  C84  1  0.890200  0.280600  0.361700  1.0  0.1462
  C  C85  1  0.982100  0.262400  0.461200  1.0  0.6878
  C  C86  1  0.568500  0.166900  0.411800  1.0  0.0861
  C  C87  1  0.614600  0.986100  0.374700  1.0  0.1119
  C  C88  1  0.655700  0.039300  0.325600  1.0  0.1565
  C  C89  1  0.609800  0.219400  0.361700  1.0  0.1453
  C  C90  1  0.517900  0.237600  0.461200  1.0  0.6875
  C  C91  1  0.333100  0.568500  0.411800  1.0  0.0835
  C  C92  1  0.513900  0.614600  0.374700  1.0  0.1131
  C  C93  1  0.460700  0.655700  0.325600  1.0  0.1582
  C  C94  1  0.280600  0.609800  0.361700  1.0  0.1448
  C  C95  1  0.262400  0.517900  0.461200  1.0  0.6861
  C  C96  1  0.166900  0.931500  0.411800  1.0  0.0832
  C  C97  1  0.986100  0.885400  0.374700  1.0  0.1122
  C  C98  1  0.039300  0.844300  0.325600  1.0  0.1585
  C  C99  1  0.219400  0.890200  0.361700  1.0  0.1458
  C  C100  1  0.237600  0.982100  0.461200  1.0  0.6861
  C  C101  1  0.931500  0.166900  0.911800  1.0  0.0852
  C  C102  1  0.885400  0.986100  0.874700  1.0  0.1119
  C  C103  1  0.844300  0.039300  0.825600  1.0  0.1558
  C  C104  1  0.890200  0.219400  0.861700  1.0  0.1457
  C  C105  1  0.982100  0.237600  0.961200  1.0  0.6876
  C  C106  1  0.568500  0.333100  0.911800  1.0  0.0856
  C  C107  1  0.614600  0.513900  0.874700  1.0  0.113
  C  C108  1  0.655700  0.460700  0.825600  1.0  0.1568
  C  C109  1  0.609800  0.280600  0.861700  1.0  0.1456
  C  C110  1  0.517900  0.262400  0.961200  1.0  0.6874
  C  C111  1  0.333100  0.931500  0.911800  1.0  0.0834
  C  C112  1  0.513900  0.885400  0.874700  1.0  0.1132
  C  C113  1  0.460700  0.844300  0.825600  1.0  0.1582
  C  C114  1  0.280600  0.890200  0.861700  1.0  0.145
  C  C115  1  0.262400  0.982100  0.961200  1.0  0.6854
  C  C116  1  0.166900  0.568500  0.911800  1.0  0.0838
  C  C117  1  0.986100  0.614600  0.874700  1.0  0.1122
  C  C118  1  0.039300  0.655700  0.825600  1.0  0.1581
  C  C119  1  0.219400  0.609800  0.861700  1.0  0.1455
  C  C120  1  0.237600  0.517900  0.961200  1.0  0.6869
  C  C121  1  0.068500  0.666900  0.588200  1.0  0.0866
  C  C122  1  0.114600  0.486100  0.625300  1.0  0.1118
  C  C123  1  0.155700  0.539300  0.674400  1.0  0.157
  C  C124  1  0.109800  0.719400  0.638300  1.0  0.1458
  C  C125  1  0.017900  0.737600  0.538800  1.0  0.6883
  C  C126  1  0.431500  0.833100  0.588200  1.0  0.0862
  C  C127  1  0.385400  0.013900  0.625300  1.0  0.1133
  C  C128  1  0.344300  0.960700  0.674400  1.0  0.1561
  C  C129  1  0.390200  0.780600  0.638300  1.0  0.1466
  C  C130  1  0.482100  0.762400  0.538800  1.0  0.687
  C  C131  1  0.666900  0.431500  0.588200  1.0  0.0838
  C  C132  1  0.486100  0.385400  0.625300  1.0  0.1127
  C  C133  1  0.539300  0.344300  0.674400  1.0  0.1582
  C  C134  1  0.719400  0.390200  0.638300  1.0  0.1461
  C  C135  1  0.737600  0.482100  0.538800  1.0  0.6861
  C  C136  1  0.833100  0.068500  0.588200  1.0  0.0842
  C  C137  1  0.013900  0.114600  0.625300  1.0  0.1132
  C  C138  1  0.960700  0.155700  0.674400  1.0  0.1586
  C  C139  1  0.780600  0.109800  0.638300  1.0  0.1451
  C  C140  1  0.762400  0.017900  0.538800  1.0  0.6858
  N  N141  1  0.072900  0.950500  0.081400  1.0  -0.3054
  N  N142  1  0.156000  0.844400  0.181300  1.0  -0.3312
  N  N143  1  0.427100  0.549500  0.081400  1.0  -0.3052
  N  N144  1  0.344000  0.655600  0.181300  1.0  -0.3309
  N  N145  1  0.549500  0.072900  0.081400  1.0  -0.3041
  N  N146  1  0.655600  0.156000  0.181300  1.0  -0.3293
  N  N147  1  0.950500  0.427100  0.081400  1.0  -0.305
  N  N148  1  0.844400  0.344000  0.181300  1.0  -0.3291
  N  N149  1  0.927100  0.450500  0.418600  1.0  -0.304
  N  N150  1  0.844000  0.344400  0.318700  1.0  -0.3332
  N  N151  1  0.572900  0.049500  0.418600  1.0  -0.3034
  N  N152  1  0.656000  0.155600  0.318700  1.0  -0.3324
  N  N153  1  0.450500  0.572900  0.418600  1.0  -0.3021
  N  N154  1  0.344400  0.656000  0.318700  1.0  -0.3309
  N  N155  1  0.049500  0.927100  0.418600  1.0  -0.3036
  N  N156  1  0.155600  0.844000  0.318700  1.0  -0.3317
  N  N157  1  0.927100  0.049500  0.918600  1.0  -0.3031
  N  N158  1  0.844000  0.155600  0.818700  1.0  -0.3323
  N  N159  1  0.572900  0.450500  0.918600  1.0  -0.3042
  N  N160  1  0.656000  0.344400  0.818700  1.0  -0.3336
  N  N161  1  0.450500  0.927100  0.918600  1.0  -0.3034
  N  N162  1  0.344400  0.844000  0.818700  1.0  -0.3315
  N  N163  1  0.049500  0.572900  0.918600  1.0  -0.3026
  N  N164  1  0.155600  0.656000  0.818700  1.0  -0.3307
  N  N165  1  0.072900  0.549500  0.581400  1.0  -0.3052
  N  N166  1  0.156000  0.655600  0.681300  1.0  -0.3312
  N  N167  1  0.427100  0.950500  0.581400  1.0  -0.3056
  N  N168  1  0.344000  0.844400  0.681300  1.0  -0.3306
  N  N169  1  0.549500  0.427100  0.581400  1.0  -0.3047
  N  N170  1  0.655600  0.344000  0.681300  1.0  -0.3294
  N  N171  1  0.950500  0.072900  0.581400  1.0  -0.3038
  N  N172  1  0.844400  0.156000  0.681300  1.0  -0.3294
  Cl  Cl173  1  0.099400  0.599400  0.250000  1.0  -0.5623
  Cl  Cl174  1  0.400600  0.900600  0.250000  1.0  -0.5628
  Cl  Cl175  1  0.900600  0.099400  0.250000  1.0  -0.5628
  Cl  Cl176  1  0.599400  0.400600  0.250000  1.0  -0.5623
  Cl  Cl177  1  0.900600  0.400600  0.750000  1.0  -0.5628
  Cl  Cl178  1  0.599400  0.099400  0.750000  1.0  -0.5623
  Cl  Cl179  1  0.099400  0.900600  0.750000  1.0  -0.5623
  Cl  Cl180  1  0.400600  0.599400  0.750000  1.0  -0.5628
  O  O181  1  0.017100  0.655000  0.046100  1.0  -0.6148
  O  O182  1  0.982100  0.817500  0.995300  1.0  -0.5684
  O  O183  1  0.482900  0.845000  0.046100  1.0  -0.6143
  O  O184  1  0.517900  0.682500  0.995300  1.0  -0.5676
  O  O185  1  0.845000  0.017100  0.046100  1.0  -0.6136
  O  O186  1  0.682500  0.982100  0.995300  1.0  -0.5683
  O  O187  1  0.655000  0.482900  0.046100  1.0  -0.6134
  O  O188  1  0.817500  0.517900  0.995300  1.0  -0.5678
  O  O189  1  0.982900  0.155000  0.453900  1.0  -0.6134
  O  O190  1  0.017900  0.317500  0.504700  1.0  -0.5659
  O  O191  1  0.517100  0.345000  0.453900  1.0  -0.6156
  O  O192  1  0.482100  0.182500  0.504700  1.0  -0.567
  O  O193  1  0.155000  0.517100  0.453900  1.0  -0.6135
  O  O194  1  0.317500  0.482100  0.504700  1.0  -0.5663
  O  O195  1  0.345000  0.982900  0.453900  1.0  -0.6131
  O  O196  1  0.182500  0.017900  0.504700  1.0  -0.5674
  O  O197  1  0.982900  0.345000  0.953900  1.0  -0.6141
  O  O198  1  0.017900  0.182500  0.004700  1.0  -0.5666
  O  O199  1  0.517100  0.155000  0.953900  1.0  -0.6148
  O  O200  1  0.482100  0.317500  0.004700  1.0  -0.5673
  O  O201  1  0.155000  0.982900  0.953900  1.0  -0.6133
  O  O202  1  0.317500  0.017900  0.004700  1.0  -0.5669
  O  O203  1  0.345000  0.517100  0.953900  1.0  -0.6132
  O  O204  1  0.182500  0.482100  0.004700  1.0  -0.5671
  O  O205  1  0.017100  0.845000  0.546100  1.0  -0.6157
  O  O206  1  0.982100  0.682500  0.495300  1.0  -0.5686
  O  O207  1  0.482900  0.655000  0.546100  1.0  -0.6135
  O  O208  1  0.517900  0.817500  0.495300  1.0  -0.5679
  O  O209  1  0.845000  0.482900  0.546100  1.0  -0.6136
  O  O210  1  0.682500  0.517900  0.495300  1.0  -0.5684
  O  O211  1  0.655000  0.017100  0.546100  1.0  -0.6135
  O  O212  1  0.817500  0.982100  0.495300  1.0  -0.568
