# generated using pymatgen
data_CoH4C6(NO2)2
_symmetry_space_group_name_H-M   'P 1'
_cell_length_a   8.99780000
_cell_length_b   9.46380000
_cell_length_c   10.43300000
_cell_angle_alpha   90.00000000
_cell_angle_beta   90.00000000
_cell_angle_gamma   90.00000000
_symmetry_Int_Tables_number   1
_chemical_formula_structural   CoH4C6(NO2)2
_chemical_formula_sum   'Co4 H16 C24 N8 O16'
_cell_volume   888.40520978
_cell_formula_units_Z   4
loop_
 _symmetry_equiv_pos_site_id
 _symmetry_equiv_pos_as_xyz
  1  'x, y, z'
loop_
 _atom_site_type_symbol
 _atom_site_label
 _atom_site_symmetry_multiplicity
 _atom_site_fract_x
 _atom_site_fract_y
 _atom_site_fract_z
 _atom_site_occupancy
 _atom_site_charge
  Co  Co1  1  0.704320  0.052720  0.730990  1.0  0.9461
  Co  Co2  1  0.795680  0.947280  0.230990  1.0  0.9438
  Co  Co3  1  0.295680  0.552720  0.769010  1.0  0.9436
  Co  Co4  1  0.204320  0.447280  0.269010  1.0  0.9457
  H  H5  1  0.554300  0.776300  0.801200  1.0  0.005
  H  H6  1  0.954500  0.203500  0.565000  1.0  0.0863
  H  H7  1  0.883400  0.213100  0.934600  1.0  0.0618
  H  H8  1  0.077600  0.365700  0.961500  1.0  0.0924
  H  H9  1  0.945700  0.223700  0.301200  1.0  0.0046
  H  H10  1  0.545500  0.796500  0.065000  1.0  0.0862
  H  H11  1  0.616600  0.786900  0.434600  1.0  0.0619
  H  H12  1  0.422400  0.634300  0.461500  1.0  0.0926
  H  H13  1  0.445700  0.276300  0.698800  1.0  0.0044
  H  H14  1  0.045500  0.703500  0.935000  1.0  0.0857
  H  H15  1  0.116600  0.713100  0.565400  1.0  0.0619
  H  H16  1  0.922400  0.865700  0.538500  1.0  0.0922
  H  H17  1  0.054300  0.723700  0.198800  1.0  0.0048
  H  H18  1  0.454500  0.296500  0.435000  1.0  0.0857
  H  H19  1  0.383400  0.286900  0.065400  1.0  0.0619
  H  H20  1  0.577600  0.134300  0.038500  1.0  0.0919
  C  C21  1  0.505700  0.801400  0.725900  1.0  0.6806
  C  C22  1  0.183400  0.390500  0.552700  1.0  0.6492
  C  C23  1  0.096200  0.333200  0.663800  1.0  0.1213
  C  C24  1  0.977700  0.235400  0.646900  1.0  0.1591
  C  C25  1  0.937100  0.241500  0.862900  1.0  0.1602
  C  C26  1  0.052100  0.335900  0.879400  1.0  0.1243
  C  C27  1  0.994300  0.198600  0.225900  1.0  0.6805
  C  C28  1  0.316600  0.609500  0.052700  1.0  0.6481
  C  C29  1  0.403800  0.666800  0.163800  1.0  0.121
  C  C30  1  0.522300  0.764600  0.146900  1.0  0.1596
  C  C31  1  0.562900  0.758500  0.362900  1.0  0.161
  C  C32  1  0.447900  0.664100  0.379400  1.0  0.1238
  C  C33  1  0.494300  0.301400  0.774100  1.0  0.6806
  C  C34  1  0.816600  0.890500  0.947300  1.0  0.6483
  C  C35  1  0.903800  0.833200  0.836200  1.0  0.1216
  C  C36  1  0.022300  0.735400  0.853100  1.0  0.1608
  C  C37  1  0.062900  0.741500  0.637100  1.0  0.1599
  C  C38  1  0.947900  0.835900  0.620600  1.0  0.1233
  C  C39  1  0.005700  0.698600  0.274100  1.0  0.6807
  C  C40  1  0.683400  0.109500  0.447300  1.0  0.6487
  C  C41  1  0.596200  0.166800  0.336200  1.0  0.1217
  C  C42  1  0.477700  0.264600  0.353100  1.0  0.1603
  C  C43  1  0.437100  0.258500  0.137100  1.0  0.1594
  C  C44  1  0.552100  0.164100  0.120600  1.0  0.1238
  N  N45  1  0.128100  0.385600  0.777000  1.0  -0.3203
  N  N46  1  0.898700  0.188300  0.747700  1.0  -0.3253
  N  N47  1  0.371900  0.614400  0.277000  1.0  -0.3208
  N  N48  1  0.601300  0.811700  0.247700  1.0  -0.3242
  N  N49  1  0.871900  0.885600  0.723000  1.0  -0.3204
  N  N50  1  0.101300  0.688300  0.752300  1.0  -0.3242
  N  N51  1  0.628100  0.114400  0.223000  1.0  -0.3207
  N  N52  1  0.398700  0.311700  0.252300  1.0  -0.3252
  O  O53  1  0.539700  0.915500  0.679500  1.0  -0.6264
  O  O54  1  0.415100  0.716500  0.684800  1.0  -0.6457
  O  O55  1  0.152500  0.347200  0.443100  1.0  -0.5997
  O  O56  1  0.280500  0.479500  0.581100  1.0  -0.5686
  O  O57  1  0.960300  0.084500  0.179500  1.0  -0.6248
  O  O58  1  0.084900  0.283500  0.184800  1.0  -0.6457
  O  O59  1  0.347500  0.652800  0.943100  1.0  -0.5984
  O  O60  1  0.219500  0.520500  0.081100  1.0  -0.5675
  O  O61  1  0.460300  0.415500  0.820500  1.0  -0.6253
  O  O62  1  0.584900  0.216500  0.815200  1.0  -0.6451
  O  O63  1  0.847500  0.847200  0.056900  1.0  -0.6011
  O  O64  1  0.719500  0.979500  0.918900  1.0  -0.5672
  O  O65  1  0.039700  0.584500  0.320500  1.0  -0.6258
  O  O66  1  0.915100  0.783500  0.315200  1.0  -0.6451
  O  O67  1  0.652500  0.152800  0.556900  1.0  -0.6005
  O  O68  1  0.780500  0.020500  0.418900  1.0  -0.568
