# generated using pymatgen
data_CoH4C6(NO2)2
_symmetry_space_group_name_H-M   'P 1'
_cell_length_a   8.91990000
_cell_length_b   9.45660000
_cell_length_c   10.41400000
_cell_angle_alpha   90.00000000
_cell_angle_beta   90.00000000
_cell_angle_gamma   90.00000000
_symmetry_Int_Tables_number   1
_chemical_formula_structural   CoH4C6(NO2)2
_chemical_formula_sum   'Co4 H16 C24 N8 O16'
_cell_volume   878.44096090
_cell_formula_units_Z   4
loop_
 _symmetry_equiv_pos_site_id
 _symmetry_equiv_pos_as_xyz
  1  'x, y, z'
loop_
 _atom_site_type_symbol
 _atom_site_label
 _atom_site_symmetry_multiplicity
 _atom_site_fract_x
 _atom_site_fract_y
 _atom_site_fract_z
 _atom_site_occupancy
 _atom_site_charge
  Co  Co1  1  0.797560  0.553810  0.273990  1.0  0.9642
  Co  Co2  1  0.702440  0.446190  0.773990  1.0  0.9666
  Co  Co3  1  0.202440  0.053810  0.226010  1.0  0.9668
  Co  Co4  1  0.297560  0.946190  0.726010  1.0  0.9643
  H  H5  1  0.037300  0.335300  0.196400  1.0  0.0155
  H  H6  1  0.439000  0.220000  0.068100  1.0  0.0836
  H  H7  1  0.354000  0.232800  0.434500  1.0  0.064
  H  H8  1  0.547600  0.392500  0.465600  1.0  0.0946
  H  H9  1  0.462700  0.664700  0.696400  1.0  0.0151
  H  H10  1  0.061000  0.780000  0.568100  1.0  0.0832
  H  H11  1  0.146000  0.767200  0.934500  1.0  0.0646
  H  H12  1  0.952400  0.607500  0.965600  1.0  0.0945
  H  H13  1  0.962700  0.835300  0.303600  1.0  0.014
  H  H14  1  0.561000  0.720000  0.431900  1.0  0.0832
  H  H15  1  0.646000  0.732800  0.065500  1.0  0.064
  H  H16  1  0.452400  0.892500  0.034400  1.0  0.0943
  H  H17  1  0.537300  0.164700  0.803600  1.0  0.0148
  H  H18  1  0.939000  0.280000  0.931900  1.0  0.0832
  H  H19  1  0.854000  0.267200  0.565500  1.0  0.064
  H  H20  1  0.047600  0.107500  0.534400  1.0  0.094
  C  C21  1  0.004800  0.306300  0.277000  1.0  0.6102
  C  C22  1  0.675600  0.397800  0.058200  1.0  0.6531
  C  C23  1  0.581500  0.345100  0.170400  1.0  0.1614
  C  C24  1  0.461500  0.251400  0.150500  1.0  0.1247
  C  C25  1  0.411800  0.261100  0.364700  1.0  0.1587
  C  C26  1  0.527700  0.357100  0.384000  1.0  0.1169
  C  C27  1  0.495200  0.693700  0.777000  1.0  0.6105
  C  C28  1  0.824400  0.602200  0.558200  1.0  0.6522
  C  C29  1  0.918500  0.654900  0.670400  1.0  0.1616
  C  C30  1  0.038500  0.748600  0.650500  1.0  0.1258
  C  C31  1  0.088200  0.738900  0.864700  1.0  0.1597
  C  C32  1  0.972300  0.642900  0.884000  1.0  0.1165
  C  C33  1  0.995200  0.806300  0.223000  1.0  0.6116
  C  C34  1  0.324400  0.897800  0.441800  1.0  0.6529
  C  C35  1  0.418500  0.845100  0.329600  1.0  0.1623
  C  C36  1  0.538500  0.751400  0.349500  1.0  0.1258
  C  C37  1  0.588200  0.761100  0.135300  1.0  0.1597
  C  C38  1  0.472300  0.857100  0.116000  1.0  0.117
  C  C39  1  0.504800  0.193700  0.723000  1.0  0.6121
  C  C40  1  0.175600  0.102200  0.941800  1.0  0.6523
  C  C41  1  0.081500  0.154900  0.829600  1.0  0.1618
  C  C42  1  0.961500  0.248600  0.849500  1.0  0.1249
  C  C43  1  0.911800  0.238900  0.635300  1.0  0.159
  C  C44  1  0.027700  0.142900  0.616000  1.0  0.1167
  N  N45  1  0.613600  0.399500  0.279000  1.0  -0.3303
  N  N46  1  0.381400  0.208500  0.248800  1.0  -0.3304
  N  N47  1  0.886400  0.600500  0.779000  1.0  -0.3302
  N  N48  1  0.118600  0.791500  0.748800  1.0  -0.3304
  N  N49  1  0.386400  0.899500  0.221000  1.0  -0.3298
  N  N50  1  0.618600  0.708500  0.251200  1.0  -0.3304
  N  N51  1  0.113600  0.100500  0.721000  1.0  -0.331
  N  N52  1  0.881400  0.291500  0.751200  1.0  -0.3299
  O  O53  1  0.931300  0.390500  0.329600  1.0  -0.6041
  O  O54  1  0.047000  0.190200  0.305700  1.0  -0.6038
  O  O55  1  0.778500  0.480600  0.084600  1.0  -0.5739
  O  O56  1  0.644100  0.353100  0.948200  1.0  -0.607
  O  O57  1  0.568700  0.609500  0.829600  1.0  -0.6037
  O  O58  1  0.453000  0.809800  0.805700  1.0  -0.6048
  O  O59  1  0.721500  0.519400  0.584600  1.0  -0.5732
  O  O60  1  0.855900  0.646900  0.448200  1.0  -0.6071
  O  O61  1  0.068700  0.890500  0.170400  1.0  -0.6038
  O  O62  1  0.953000  0.690200  0.194300  1.0  -0.604
  O  O63  1  0.221500  0.980600  0.415400  1.0  -0.5732
  O  O64  1  0.355900  0.853100  0.551800  1.0  -0.6057
  O  O65  1  0.431300  0.109500  0.670400  1.0  -0.604
  O  O66  1  0.547000  0.309800  0.694300  1.0  -0.6047
  O  O67  1  0.278500  0.019400  0.915400  1.0  -0.5742
  O  O68  1  0.144100  0.146900  0.051800  1.0  -0.6063
