# generated using pymatgen
data_Zn3H14(C2O)16
_symmetry_space_group_name_H-M   'P 1'
_cell_length_a   16.64600000
_cell_length_b   18.34500000
_cell_length_c   16.30900000
_cell_angle_alpha   90.00000000
_cell_angle_beta   108.89300000
_cell_angle_gamma   90.00000000
_symmetry_Int_Tables_number   1
_chemical_formula_structural   Zn3H14(C2O)16
_chemical_formula_sum   'Zn12 H56 C128 O64'
_cell_volume   4711.97983569
_cell_formula_units_Z   4
loop_
 _symmetry_equiv_pos_site_id
 _symmetry_equiv_pos_as_xyz
  1  'x, y, z'
loop_
 _atom_site_type_symbol
 _atom_site_label
 _atom_site_symmetry_multiplicity
 _atom_site_fract_x
 _atom_site_fract_y
 _atom_site_fract_z
 _atom_site_occupancy
 _atom_site_charge
  Zn  Zn1  1  0.059500  0.137720  0.364510  1.0  1.1254
  Zn  Zn2  1  0.559500  0.637720  0.364510  1.0  1.1254
  Zn  Zn3  1  0.940500  0.137720  0.135490  1.0  1.1247
  Zn  Zn4  1  0.440500  0.637720  0.135490  1.0  1.1247
  Zn  Zn5  1  0.940500  0.862280  0.635490  1.0  1.1249
  Zn  Zn6  1  0.440500  0.362280  0.635490  1.0  1.1249
  Zn  Zn7  1  0.059500  0.862280  0.864510  1.0  1.1251
  Zn  Zn8  1  0.559500  0.362280  0.864510  1.0  1.1251
  Zn  Zn9  1  0.250000  0.250000  0.500000  1.0  1.082
  Zn  Zn10  1  0.750000  0.250000  0.000000  1.0  1.0822
  Zn  Zn11  1  0.750000  0.750000  0.500000  1.0  1.082
  Zn  Zn12  1  0.250000  0.750000  0.000000  1.0  1.0822
  H  H13  1  0.685900  0.921500  0.006300  1.0  0.3953
  H  H14  1  0.317400  0.114700  0.657400  1.0  0.0939
  H  H15  1  0.270200  0.974000  0.827500  1.0  0.1095
  H  H16  1  0.096100  0.008500  0.594000  1.0  0.1093
  H  H17  1  0.403300  0.167600  0.792700  1.0  0.1105
  H  H18  1  0.618000  0.088400  0.961400  1.0  0.1102
  H  H19  1  0.424200  0.955000  0.848400  1.0  0.1058
  H  H20  1  0.185900  0.421500  0.006300  1.0  0.3953
  H  H21  1  0.817400  0.614700  0.657400  1.0  0.0939
  H  H22  1  0.770200  0.474000  0.827500  1.0  0.1095
  H  H23  1  0.596100  0.508500  0.594000  1.0  0.1093
  H  H24  1  0.903300  0.667600  0.792700  1.0  0.1105
  H  H25  1  0.118000  0.588400  0.961400  1.0  0.1102
  H  H26  1  0.924200  0.455000  0.848400  1.0  0.1058
  H  H27  1  0.314100  0.921500  0.493700  1.0  0.3985
  H  H28  1  0.682600  0.114700  0.842600  1.0  0.0942
  H  H29  1  0.729800  0.974000  0.672500  1.0  0.1089
  H  H30  1  0.903900  0.008500  0.906000  1.0  0.1092
  H  H31  1  0.596700  0.167600  0.707300  1.0  0.1103
  H  H32  1  0.382000  0.088400  0.538600  1.0  0.11
  H  H33  1  0.575800  0.955000  0.651600  1.0  0.1059
  H  H34  1  0.814100  0.421500  0.493700  1.0  0.3985
  H  H35  1  0.182600  0.614700  0.842600  1.0  0.0942
  H  H36  1  0.229800  0.474000  0.672500  1.0  0.1089
  H  H37  1  0.403900  0.508500  0.906000  1.0  0.1092
  H  H38  1  0.096700  0.667600  0.707300  1.0  0.1103
  H  H39  1  0.882000  0.588400  0.538600  1.0  0.11
  H  H40  1  0.075800  0.455000  0.651600  1.0  0.1059
  H  H41  1  0.314100  0.078500  0.993700  1.0  0.3982
  H  H42  1  0.682600  0.885300  0.342600  1.0  0.094
  H  H43  1  0.729800  0.026000  0.172500  1.0  0.1088
  H  H44  1  0.903900  0.991500  0.406000  1.0  0.1091
  H  H45  1  0.596700  0.832400  0.207300  1.0  0.1103
  H  H46  1  0.382000  0.911600  0.038600  1.0  0.1099
  H  H47  1  0.575800  0.045000  0.151600  1.0  0.1049
  H  H48  1  0.814100  0.578500  0.993700  1.0  0.3982
  H  H49  1  0.182600  0.385300  0.342600  1.0  0.094
  H  H50  1  0.229800  0.526000  0.172500  1.0  0.1088
  H  H51  1  0.403900  0.491500  0.406000  1.0  0.1091
  H  H52  1  0.096700  0.332400  0.207300  1.0  0.1103
  H  H53  1  0.882000  0.411600  0.038600  1.0  0.1099
  H  H54  1  0.075800  0.545000  0.151600  1.0  0.1049
  H  H55  1  0.685900  0.078500  0.506300  1.0  0.3964
  H  H56  1  0.317400  0.885300  0.157400  1.0  0.0938
  H  H57  1  0.270200  0.026000  0.327500  1.0  0.1088
  H  H58  1  0.096100  0.991500  0.094000  1.0  0.1096
  H  H59  1  0.403300  0.832400  0.292700  1.0  0.1103
  H  H60  1  0.618000  0.911600  0.461400  1.0  0.1105
  H  H61  1  0.424200  0.045000  0.348400  1.0  0.1054
  H  H62  1  0.185900  0.578500  0.506300  1.0  0.3964
  H  H63  1  0.817400  0.385300  0.157400  1.0  0.0938
  H  H64  1  0.770200  0.526000  0.327500  1.0  0.1088
  H  H65  1  0.596100  0.491500  0.094000  1.0  0.1096
  H  H66  1  0.903300  0.332400  0.292700  1.0  0.1103
  H  H67  1  0.118000  0.411600  0.461400  1.0  0.1105
  H  H68  1  0.924200  0.545000  0.348400  1.0  0.1054
  C  C69  1  0.174500  0.105200  0.527400  1.0  0.7242
  C  C70  1  0.201500  0.068200  0.614100  1.0  -0.1448
  C  C71  1  0.281600  0.082000  0.672100  1.0  -0.073
  C  C72  1  0.309200  0.047000  0.753300  1.0  0.0175
  C  C73  1  0.253600  0.997500  0.774100  1.0  -0.0546
  C  C74  1  0.173700  0.984200  0.714300  1.0  -0.1539
  C  C75  1  0.148800  0.018800  0.634200  1.0  0.0236
  C  C76  1  0.112800  0.933200  0.735300  1.0  0.7327
  C  C77  1  0.397400  0.059300  0.812600  1.0  0.0729
  C  C78  1  0.433800  0.128500  0.824000  1.0  -0.0517
  C  C79  1  0.515100  0.140000  0.881300  1.0  -0.1532
  C  C80  1  0.563400  0.081100  0.923200  1.0  -0.0667
  C  C81  1  0.530200  0.011400  0.907900  1.0  -0.1801
  C  C82  1  0.447300  0.001700  0.855300  1.0  -0.0661
  C  C83  1  0.552800  0.215600  0.893800  1.0  0.693
  C  C84  1  0.581200  0.945500  0.944400  1.0  0.6509
  C  C85  1  0.674500  0.605200  0.527400  1.0  0.7242
  C  C86  1  0.701500  0.568200  0.614100  1.0  -0.1448
  C  C87  1  0.781600  0.582000  0.672100  1.0  -0.073
  C  C88  1  0.809200  0.547000  0.753300  1.0  0.0175
  C  C89  1  0.753600  0.497500  0.774100  1.0  -0.0546
  C  C90  1  0.673700  0.484200  0.714300  1.0  -0.1539
  C  C91  1  0.648800  0.518800  0.634200  1.0  0.0236
  C  C92  1  0.612800  0.433200  0.735300  1.0  0.7327
  C  C93  1  0.897400  0.559300  0.812600  1.0  0.0729
  C  C94  1  0.933800  0.628500  0.824000  1.0  -0.0517
  C  C95  1  0.015100  0.640000  0.881300  1.0  -0.1532
  C  C96  1  0.063400  0.581100  0.923200  1.0  -0.0667
  C  C97  1  0.030200  0.511400  0.907900  1.0  -0.1801
  C  C98  1  0.947300  0.501700  0.855300  1.0  -0.0661
  C  C99  1  0.052800  0.715600  0.893800  1.0  0.693
  C  C100  1  0.081200  0.445500  0.944400  1.0  0.6509
  C  C101  1  0.825500  0.105200  0.972600  1.0  0.7239
  C  C102  1  0.798500  0.068200  0.885900  1.0  -0.1453
  C  C103  1  0.718400  0.082000  0.827900  1.0  -0.0723
  C  C104  1  0.690800  0.047000  0.746700  1.0  0.0181
  C  C105  1  0.746400  0.997500  0.725900  1.0  -0.055
  C  C106  1  0.826300  0.984200  0.785700  1.0  -0.1541
  C  C107  1  0.851200  0.018800  0.865800  1.0  0.024
  C  C108  1  0.887200  0.933200  0.764700  1.0  0.732
  C  C109  1  0.602600  0.059300  0.687400  1.0  0.0733
  C  C110  1  0.566200  0.128500  0.676000  1.0  -0.0519
  C  C111  1  0.484900  0.140000  0.618700  1.0  -0.152
  C  C112  1  0.436600  0.081100  0.576800  1.0  -0.0669
  C  C113  1  0.469800  0.011400  0.592100  1.0  -0.1804
  C  C114  1  0.552700  0.001700  0.644700  1.0  -0.065
  C  C115  1  0.447200  0.215600  0.606200  1.0  0.6933
  C  C116  1  0.418800  0.945500  0.555600  1.0  0.6504
  C  C117  1  0.325500  0.605200  0.972600  1.0  0.7239
  C  C118  1  0.298500  0.568200  0.885900  1.0  -0.1453
  C  C119  1  0.218400  0.582000  0.827900  1.0  -0.0723
  C  C120  1  0.190800  0.547000  0.746700  1.0  0.0181
  C  C121  1  0.246400  0.497500  0.725900  1.0  -0.055
  C  C122  1  0.326300  0.484200  0.785700  1.0  -0.1541
  C  C123  1  0.351200  0.518800  0.865800  1.0  0.024
  C  C124  1  0.387200  0.433200  0.764700  1.0  0.732
  C  C125  1  0.102600  0.559300  0.687400  1.0  0.0733
  C  C126  1  0.066200  0.628500  0.676000  1.0  -0.0519
  C  C127  1  0.984900  0.640000  0.618700  1.0  -0.152
  C  C128  1  0.936600  0.581100  0.576800  1.0  -0.0669
  C  C129  1  0.969800  0.511400  0.592100  1.0  -0.1804
  C  C130  1  0.052700  0.501700  0.644700  1.0  -0.065
  C  C131  1  0.947200  0.715600  0.606200  1.0  0.6933
  C  C132  1  0.918800  0.445500  0.555600  1.0  0.6504
  C  C133  1  0.825500  0.894800  0.472600  1.0  0.7233
  C  C134  1  0.798500  0.931800  0.385900  1.0  -0.1452
  C  C135  1  0.718400  0.918000  0.327900  1.0  -0.072
  C  C136  1  0.690800  0.953000  0.246700  1.0  0.0175
  C  C137  1  0.746400  0.002500  0.225900  1.0  -0.0548
  C  C138  1  0.826300  0.015800  0.285700  1.0  -0.1543
  C  C139  1  0.851200  0.981200  0.365800  1.0  0.024
  C  C140  1  0.887200  0.066800  0.264700  1.0  0.7322
  C  C141  1  0.602600  0.940700  0.187400  1.0  0.0735
  C  C142  1  0.566200  0.871500  0.176000  1.0  -0.0521
  C  C143  1  0.484900  0.860000  0.118700  1.0  -0.1537
  C  C144  1  0.436600  0.918900  0.076800  1.0  -0.0664
  C  C145  1  0.469800  0.988600  0.092100  1.0  -0.1807
  C  C146  1  0.552700  0.998300  0.144700  1.0  -0.064
  C  C147  1  0.447200  0.784400  0.106200  1.0  0.6923
  C  C148  1  0.418800  0.054500  0.055600  1.0  0.6514
  C  C149  1  0.325500  0.394800  0.472600  1.0  0.7233
  C  C150  1  0.298500  0.431800  0.385900  1.0  -0.1452
  C  C151  1  0.218400  0.418000  0.327900  1.0  -0.072
  C  C152  1  0.190800  0.453000  0.246700  1.0  0.0175
  C  C153  1  0.246400  0.502500  0.225900  1.0  -0.0548
  C  C154  1  0.326300  0.515800  0.285700  1.0  -0.1543
  C  C155  1  0.351200  0.481200  0.365800  1.0  0.024
  C  C156  1  0.387200  0.566800  0.264700  1.0  0.7322
  C  C157  1  0.102600  0.440700  0.187400  1.0  0.0735
  C  C158  1  0.066200  0.371500  0.176000  1.0  -0.0521
  C  C159  1  0.984900  0.360000  0.118700  1.0  -0.1537
  C  C160  1  0.936600  0.418900  0.076800  1.0  -0.0664
  C  C161  1  0.969800  0.488600  0.092100  1.0  -0.1807
  C  C162  1  0.052700  0.498300  0.144700  1.0  -0.064
  C  C163  1  0.947200  0.284400  0.106200  1.0  0.6923
  C  C164  1  0.918800  0.554500  0.055600  1.0  0.6514
  C  C165  1  0.174500  0.894800  0.027400  1.0  0.7233
  C  C166  1  0.201500  0.931800  0.114100  1.0  -0.1459
  C  C167  1  0.281600  0.918000  0.172100  1.0  -0.0732
  C  C168  1  0.309200  0.953000  0.253300  1.0  0.0169
  C  C169  1  0.253600  0.002500  0.274100  1.0  -0.0547
  C  C170  1  0.173700  0.015800  0.214300  1.0  -0.1537
  C  C171  1  0.148800  0.981200  0.134200  1.0  0.0235
  C  C172  1  0.112800  0.066800  0.235300  1.0  0.7328
  C  C173  1  0.397400  0.940700  0.312600  1.0  0.073
  C  C174  1  0.433800  0.871500  0.324000  1.0  -0.0511
  C  C175  1  0.515100  0.860000  0.381300  1.0  -0.1526
  C  C176  1  0.563400  0.918900  0.423200  1.0  -0.0663
  C  C177  1  0.530200  0.988600  0.407900  1.0  -0.1805
  C  C178  1  0.447300  0.998300  0.355300  1.0  -0.065
  C  C179  1  0.552800  0.784400  0.393800  1.0  0.6934
  C  C180  1  0.581200  0.054500  0.444400  1.0  0.6529
  C  C181  1  0.674500  0.394800  0.027400  1.0  0.7233
  C  C182  1  0.701500  0.431800  0.114100  1.0  -0.1459
  C  C183  1  0.781600  0.418000  0.172100  1.0  -0.0732
  C  C184  1  0.809200  0.453000  0.253300  1.0  0.0169
  C  C185  1  0.753600  0.502500  0.274100  1.0  -0.0547
  C  C186  1  0.673700  0.515800  0.214300  1.0  -0.1537
  C  C187  1  0.648800  0.481200  0.134200  1.0  0.0235
  C  C188  1  0.612800  0.566800  0.235300  1.0  0.7328
  C  C189  1  0.897400  0.440700  0.312600  1.0  0.073
  C  C190  1  0.933800  0.371500  0.324000  1.0  -0.0511
  C  C191  1  0.015100  0.360000  0.381300  1.0  -0.1526
  C  C192  1  0.063400  0.418900  0.423200  1.0  -0.0663
  C  C193  1  0.030200  0.488600  0.407900  1.0  -0.1805
  C  C194  1  0.947300  0.498300  0.355300  1.0  -0.065
  C  C195  1  0.052800  0.284400  0.393800  1.0  0.6934
  C  C196  1  0.081200  0.554500  0.444400  1.0  0.6529
  O  O197  1  0.096900  0.097310  0.481200  1.0  -0.6093
  O  O198  1  0.226400  0.140910  0.504600  1.0  -0.6144
  O  O199  1  0.510500  0.265610  0.849700  1.0  -0.5918
  O  O200  1  0.621700  0.224800  0.949200  1.0  -0.6583
  O  O201  1  0.658700  0.959600  0.995000  1.0  -0.5074
  O  O202  1  0.553500  0.883900  0.927200  1.0  -0.4901
  O  O203  1  0.135800  0.903920  0.808500  1.0  -0.588
  O  O204  1  0.043600  0.923000  0.676600  1.0  -0.6137
  O  O205  1  0.596900  0.597310  0.481200  1.0  -0.6093
  O  O206  1  0.726400  0.640910  0.504600  1.0  -0.6144
  O  O207  1  0.010500  0.765610  0.849700  1.0  -0.5916
  O  O208  1  0.121700  0.724800  0.949200  1.0  -0.6583
  O  O209  1  0.158700  0.459600  0.995000  1.0  -0.5074
  O  O210  1  0.053500  0.383900  0.927200  1.0  -0.4901
  O  O211  1  0.635800  0.403920  0.808500  1.0  -0.588
  O  O212  1  0.543600  0.423000  0.676600  1.0  -0.6137
  O  O213  1  0.903100  0.097310  0.018800  1.0  -0.609
  O  O214  1  0.773600  0.140910  0.995400  1.0  -0.613
  O  O215  1  0.489500  0.265610  0.650300  1.0  -0.5926
  O  O216  1  0.378300  0.224800  0.550800  1.0  -0.6568
  O  O217  1  0.341300  0.959600  0.505000  1.0  -0.5056
  O  O218  1  0.446500  0.883900  0.572800  1.0  -0.49
  O  O219  1  0.864200  0.903920  0.691500  1.0  -0.5873
  O  O220  1  0.956400  0.923000  0.823400  1.0  -0.6166
  O  O221  1  0.403100  0.597310  0.018800  1.0  -0.609
  O  O222  1  0.273600  0.640910  0.995400  1.0  -0.613
  O  O223  1  0.989500  0.765610  0.650300  1.0  -0.5927
  O  O224  1  0.878300  0.724800  0.550800  1.0  -0.6568
  O  O225  1  0.841300  0.459600  0.505000  1.0  -0.5056
  O  O226  1  0.946500  0.383900  0.572800  1.0  -0.49
  O  O227  1  0.364200  0.403920  0.691500  1.0  -0.5873
  O  O228  1  0.456400  0.423000  0.823400  1.0  -0.6166
  O  O229  1  0.903100  0.902690  0.518800  1.0  -0.6092
  O  O230  1  0.773600  0.859090  0.495400  1.0  -0.6142
  O  O231  1  0.489500  0.734390  0.150300  1.0  -0.5921
  O  O232  1  0.378300  0.775200  0.050800  1.0  -0.6579
  O  O233  1  0.341300  0.040400  0.005000  1.0  -0.5088
  O  O234  1  0.446500  0.116100  0.072800  1.0  -0.4885
  O  O235  1  0.864200  0.096080  0.191500  1.0  -0.5873
  O  O236  1  0.956400  0.077000  0.323400  1.0  -0.6162
  O  O237  1  0.403100  0.402690  0.518800  1.0  -0.6092
  O  O238  1  0.273600  0.359090  0.495400  1.0  -0.6142
  O  O239  1  0.989500  0.234390  0.150300  1.0  -0.5917
  O  O240  1  0.878300  0.275200  0.050800  1.0  -0.6579
  O  O241  1  0.841300  0.540400  0.005000  1.0  -0.5088
  O  O242  1  0.946500  0.616100  0.072800  1.0  -0.4885
  O  O243  1  0.364200  0.596080  0.191500  1.0  -0.5873
  O  O244  1  0.456400  0.577000  0.323400  1.0  -0.6162
  O  O245  1  0.096900  0.902690  0.981200  1.0  -0.6089
  O  O246  1  0.226400  0.859090  0.004600  1.0  -0.6132
  O  O247  1  0.510500  0.734390  0.349700  1.0  -0.5897
  O  O248  1  0.621700  0.775200  0.449200  1.0  -0.6592
  O  O249  1  0.658700  0.040400  0.495000  1.0  -0.5133
  O  O250  1  0.553500  0.116100  0.427200  1.0  -0.4885
  O  O251  1  0.135800  0.096080  0.308500  1.0  -0.5882
  O  O252  1  0.043600  0.077000  0.176600  1.0  -0.6135
  O  O253  1  0.596900  0.402690  0.981200  1.0  -0.6089
  O  O254  1  0.726400  0.359090  0.004600  1.0  -0.6132
  O  O255  1  0.010500  0.234390  0.349700  1.0  -0.59
  O  O256  1  0.121700  0.275200  0.449200  1.0  -0.6592
  O  O257  1  0.158700  0.540400  0.495000  1.0  -0.5133
  O  O258  1  0.053500  0.616100  0.427200  1.0  -0.4885
  O  O259  1  0.635800  0.596080  0.308500  1.0  -0.5882
  O  O260  1  0.543600  0.577000  0.176600  1.0  -0.6135
