# generated using pymatgen
data_Zn5H18(C24O13)2
_symmetry_space_group_name_H-M   'P 1'
_cell_length_a   12.14500000
_cell_length_b   30.72000000
_cell_length_c   22.75000000
_cell_angle_alpha   90.00000000
_cell_angle_beta   94.00000000
_cell_angle_gamma   90.00000000
_symmetry_Int_Tables_number   1
_chemical_formula_structural   Zn5H18(C24O13)2
_chemical_formula_sum   'Zn20 H72 C192 O104'
_cell_volume   8467.22150805
_cell_formula_units_Z   4
loop_
 _symmetry_equiv_pos_site_id
 _symmetry_equiv_pos_as_xyz
  1  'x, y, z'
loop_
 _atom_site_type_symbol
 _atom_site_label
 _atom_site_symmetry_multiplicity
 _atom_site_fract_x
 _atom_site_fract_y
 _atom_site_fract_z
 _atom_site_occupancy
 _atom_site_charge
  Zn  Zn1  1  0.314270  0.132520  0.487470  1.0  1.1139
  Zn  Zn2  1  0.258800  0.083100  0.342840  1.0  1.0935
  Zn  Zn3  1  0.814270  0.632520  0.487470  1.0  1.1138
  Zn  Zn4  1  0.758800  0.583100  0.342840  1.0  1.0935
  Zn  Zn5  1  0.685730  0.132520  0.012530  1.0  1.1171
  Zn  Zn6  1  0.741200  0.083100  0.157160  1.0  1.0941
  Zn  Zn7  1  0.185730  0.632520  0.012530  1.0  1.1171
  Zn  Zn8  1  0.241200  0.583100  0.157160  1.0  1.0941
  Zn  Zn9  1  0.685730  0.867480  0.512530  1.0  1.1163
  Zn  Zn10  1  0.741200  0.916900  0.657160  1.0  1.0942
  Zn  Zn11  1  0.185730  0.367480  0.512530  1.0  1.1163
  Zn  Zn12  1  0.241200  0.416900  0.657160  1.0  1.0942
  Zn  Zn13  1  0.314270  0.867480  0.987470  1.0  1.1149
  Zn  Zn14  1  0.258800  0.916900  0.842840  1.0  1.0937
  Zn  Zn15  1  0.814270  0.367480  0.987470  1.0  1.1149
  Zn  Zn16  1  0.758800  0.416900  0.842840  1.0  1.0937
  Zn  Zn17  1  0.000000  0.037940  0.250000  1.0  1.0131
  Zn  Zn18  1  0.500000  0.537940  0.250000  1.0  1.0131
  Zn  Zn19  1  0.000000  0.962060  0.750000  1.0  1.0118
  Zn  Zn20  1  0.500000  0.462060  0.750000  1.0  1.0118
  H  H21  1  0.190200  0.247900  0.425400  1.0  0.1371
  H  H22  1  0.007000  0.311800  0.300000  1.0  0.1384
  H  H23  1  0.076900  0.185800  0.278600  1.0  0.1302
  H  H24  1  0.931200  0.980200  0.389900  1.0  0.1393
  H  H25  1  0.007300  0.908300  0.534300  1.0  0.1402
  H  H26  1  0.241000  0.978600  0.462300  1.0  0.1315
  H  H27  1  0.112600  0.935500  0.619600  1.0  0.12
  H  H28  1  0.424900  0.909000  0.681600  1.0  0.1428
  H  H29  1  0.349400  0.917400  0.507000  1.0  0.1421
  H  H30  1  0.690200  0.747900  0.425400  1.0  0.1371
  H  H31  1  0.507000  0.811800  0.300000  1.0  0.1394
  H  H32  1  0.576900  0.685800  0.278600  1.0  0.1302
  H  H33  1  0.431200  0.480200  0.389900  1.0  0.1393
  H  H34  1  0.507300  0.408300  0.534300  1.0  0.1402
  H  H35  1  0.741000  0.478600  0.462300  1.0  0.1316
  H  H36  1  0.612600  0.435500  0.619600  1.0  0.12
  H  H37  1  0.924900  0.409000  0.681600  1.0  0.1428
  H  H38  1  0.849400  0.417400  0.507000  1.0  0.1421
  H  H39  1  0.809800  0.247900  0.074600  1.0  0.1367
  H  H40  1  0.993000  0.311800  0.200000  1.0  0.1379
  H  H41  1  0.923100  0.185800  0.221400  1.0  0.1304
  H  H42  1  0.068800  0.980200  0.110100  1.0  0.1391
  H  H43  1  0.992700  0.908300  0.965700  1.0  0.1409
  H  H44  1  0.759000  0.978600  0.037700  1.0  0.1308
  H  H45  1  0.887400  0.935500  0.880400  1.0  0.1208
  H  H46  1  0.575100  0.909000  0.818400  1.0  0.142
  H  H47  1  0.650600  0.917400  0.993000  1.0  0.1425
  H  H48  1  0.309800  0.747900  0.074600  1.0  0.1367
  H  H49  1  0.493000  0.811800  0.200000  1.0  0.1387
  H  H50  1  0.423100  0.685800  0.221400  1.0  0.1304
  H  H51  1  0.568800  0.480200  0.110100  1.0  0.1391
  H  H52  1  0.492700  0.408300  0.965700  1.0  0.1409
  H  H53  1  0.259000  0.478600  0.037700  1.0  0.1307
  H  H54  1  0.387400  0.435500  0.880400  1.0  0.1208
  H  H55  1  0.075100  0.409000  0.818400  1.0  0.142
  H  H56  1  0.150600  0.417400  0.993000  1.0  0.1436
  H  H57  1  0.809800  0.752100  0.574600  1.0  0.1367
  H  H58  1  0.993000  0.688200  0.700000  1.0  0.1378
  H  H59  1  0.923100  0.814200  0.721400  1.0  0.1298
  H  H60  1  0.068800  0.019800  0.610100  1.0  0.1384
  H  H61  1  0.992700  0.091700  0.465700  1.0  0.1409
  H  H62  1  0.759000  0.021400  0.537700  1.0  0.1316
  H  H63  1  0.887400  0.064500  0.380400  1.0  0.1207
  H  H64  1  0.575100  0.091000  0.318400  1.0  0.1422
  H  H65  1  0.650600  0.082600  0.493000  1.0  0.1425
  H  H66  1  0.309800  0.252100  0.574600  1.0  0.1367
  H  H67  1  0.493000  0.188200  0.700000  1.0  0.1389
  H  H68  1  0.423100  0.314200  0.721400  1.0  0.1298
  H  H69  1  0.568800  0.519800  0.610100  1.0  0.1383
  H  H70  1  0.492700  0.591700  0.465700  1.0  0.1409
  H  H71  1  0.259000  0.521400  0.537700  1.0  0.1314
  H  H72  1  0.387400  0.564500  0.380400  1.0  0.1207
  H  H73  1  0.075100  0.591000  0.318400  1.0  0.1422
  H  H74  1  0.150600  0.582600  0.493000  1.0  0.1435
  H  H75  1  0.190200  0.752100  0.925400  1.0  0.1372
  H  H76  1  0.007000  0.688200  0.800000  1.0  0.1368
  H  H77  1  0.076900  0.814200  0.778600  1.0  0.1306
  H  H78  1  0.931200  0.019800  0.889900  1.0  0.1377
  H  H79  1  0.007300  0.091700  0.034300  1.0  0.1403
  H  H80  1  0.241000  0.021400  0.962300  1.0  0.131
  H  H81  1  0.112600  0.064500  0.119600  1.0  0.1203
  H  H82  1  0.424900  0.091000  0.181600  1.0  0.1427
  H  H83  1  0.349400  0.082600  0.007000  1.0  0.1422
  H  H84  1  0.690200  0.252100  0.925400  1.0  0.1372
  H  H85  1  0.507000  0.188200  0.800000  1.0  0.1382
  H  H86  1  0.576900  0.314200  0.778600  1.0  0.1306
  H  H87  1  0.431200  0.519800  0.889900  1.0  0.1377
  H  H88  1  0.507300  0.591700  0.034300  1.0  0.1403
  H  H89  1  0.741000  0.521400  0.962300  1.0  0.131
  H  H90  1  0.612600  0.564500  0.119600  1.0  0.1203
  H  H91  1  0.924900  0.591000  0.181600  1.0  0.1427
  H  H92  1  0.849400  0.582600  0.007000  1.0  0.1422
  C  C93  1  0.197700  0.170150  0.378000  1.0  0.7577
  C  C94  1  0.143000  0.210650  0.355100  1.0  -0.1385
  C  C95  1  0.151300  0.248280  0.388700  1.0  0.0826
  C  C96  1  0.101900  0.286470  0.367900  1.0  -0.138
  C  C97  1  0.041700  0.286360  0.313600  1.0  0.0062
  C  C98  1  0.032600  0.248820  0.279300  1.0  0.0255
  C  C99  1  0.083100  0.211210  0.300800  1.0  -0.0381
  C  C100  1  0.109700  0.327000  0.404500  1.0  0.7353
  C  C101  1  0.122500  0.017690  0.376600  1.0  0.7552
  C  C102  1  0.090800  0.984460  0.419000  1.0  -0.1115
  C  C103  1  0.983200  0.970380  0.418800  1.0  0.0154
  C  C104  1  0.951600  0.941470  0.461900  1.0  -0.1319
  C  C105  1  0.028500  0.927350  0.505400  1.0  -0.0586
  C  C106  1  0.138300  0.941650  0.506300  1.0  0.0354
  C  C107  1  0.168000  0.969510  0.462700  1.0  -0.0303
  C  C108  1  0.218600  0.929110  0.555400  1.0  0.054
  C  C109  1  0.185800  0.929700  0.612800  1.0  -0.0867
  C  C110  1  0.262400  0.921600  0.660300  1.0  -0.1
  C  C111  1  0.373100  0.913320  0.650100  1.0  0.0448
  C  C112  1  0.404700  0.911510  0.592400  1.0  -0.1201
  C  C113  1  0.327900  0.919040  0.545300  1.0  0.012
  C  C114  1  0.833400  0.926300  0.463600  1.0  0.7746
  C  C115  1  0.226100  0.924500  0.721500  1.0  0.1444
  C  C116  1  0.522300  0.902340  0.582200  1.0  0.7789
  C  C117  1  0.697700  0.670150  0.378000  1.0  0.7577
  C  C118  1  0.643000  0.710650  0.355100  1.0  -0.1385
  C  C119  1  0.651300  0.748280  0.388700  1.0  0.0826
  C  C120  1  0.601900  0.786470  0.367900  1.0  -0.138
  C  C121  1  0.541700  0.786360  0.313600  1.0  0.0062
  C  C122  1  0.532600  0.748820  0.279300  1.0  0.0255
  C  C123  1  0.583100  0.711210  0.300800  1.0  -0.0384
  C  C124  1  0.609700  0.827000  0.404500  1.0  0.7353
  C  C125  1  0.622500  0.517690  0.376600  1.0  0.7548
  C  C126  1  0.590800  0.484460  0.419000  1.0  -0.1115
  C  C127  1  0.483200  0.470380  0.418800  1.0  0.0154
  C  C128  1  0.451600  0.441470  0.461900  1.0  -0.1319
  C  C129  1  0.528500  0.427350  0.505400  1.0  -0.0585
  C  C130  1  0.638300  0.441650  0.506300  1.0  0.0354
  C  C131  1  0.668000  0.469510  0.462700  1.0  -0.0303
  C  C132  1  0.718600  0.429110  0.555400  1.0  0.054
  C  C133  1  0.685800  0.429700  0.612800  1.0  -0.0867
  C  C134  1  0.762400  0.421600  0.660300  1.0  -0.1
  C  C135  1  0.873100  0.413320  0.650100  1.0  0.0448
  C  C136  1  0.904700  0.411510  0.592400  1.0  -0.1201
  C  C137  1  0.827900  0.419040  0.545300  1.0  0.012
  C  C138  1  0.333400  0.426300  0.463600  1.0  0.7746
  C  C139  1  0.726100  0.424500  0.721500  1.0  0.1444
  C  C140  1  0.022300  0.402340  0.582200  1.0  0.7789
  C  C141  1  0.802300  0.170150  0.122000  1.0  0.758
  C  C142  1  0.857000  0.210650  0.144900  1.0  -0.1386
  C  C143  1  0.848700  0.248280  0.111300  1.0  0.0837
  C  C144  1  0.898100  0.286470  0.132100  1.0  -0.1376
  C  C145  1  0.958300  0.286360  0.186400  1.0  0.0072
  C  C146  1  0.967400  0.248820  0.220700  1.0  0.0251
  C  C147  1  0.916900  0.211210  0.199200  1.0  -0.0386
  C  C148  1  0.890300  0.327000  0.095500  1.0  0.7386
  C  C149  1  0.877500  0.017690  0.123400  1.0  0.7555
  C  C150  1  0.909200  0.984460  0.081000  1.0  -0.1134
  C  C151  1  0.016800  0.970380  0.081200  1.0  0.0139
  C  C152  1  0.048400  0.941470  0.038100  1.0  -0.13
  C  C153  1  0.971500  0.927350  0.994600  1.0  -0.0573
  C  C154  1  0.861700  0.941650  0.993700  1.0  0.0346
  C  C155  1  0.832000  0.969510  0.037300  1.0  -0.0307
  C  C156  1  0.781400  0.929110  0.944600  1.0  0.054
  C  C157  1  0.814200  0.929700  0.887200  1.0  -0.0864
  C  C158  1  0.737600  0.921600  0.839700  1.0  -0.0997
  C  C159  1  0.626900  0.913320  0.849900  1.0  0.044
  C  C160  1  0.595300  0.911510  0.907600  1.0  -0.1221
  C  C161  1  0.672100  0.919040  0.954700  1.0  0.0101
  C  C162  1  0.166600  0.926300  0.036400  1.0  0.775
  C  C163  1  0.773900  0.924500  0.778500  1.0  0.1399
  C  C164  1  0.477700  0.902340  0.917800  1.0  0.7804
  C  C165  1  0.302300  0.670150  0.122000  1.0  0.758
  C  C166  1  0.357000  0.710650  0.144900  1.0  -0.1386
  C  C167  1  0.348700  0.748280  0.111300  1.0  0.0837
  C  C168  1  0.398100  0.786470  0.132100  1.0  -0.1376
  C  C169  1  0.458300  0.786360  0.186400  1.0  0.0072
  C  C170  1  0.467400  0.748820  0.220700  1.0  0.0251
  C  C171  1  0.416900  0.711210  0.199200  1.0  -0.0387
  C  C172  1  0.390300  0.827000  0.095500  1.0  0.7386
  C  C173  1  0.377500  0.517690  0.123400  1.0  0.7562
  C  C174  1  0.409200  0.484460  0.081000  1.0  -0.1134
  C  C175  1  0.516800  0.470380  0.081200  1.0  0.0139
  C  C176  1  0.548400  0.441470  0.038100  1.0  -0.1302
  C  C177  1  0.471500  0.427350  0.994600  1.0  -0.0573
  C  C178  1  0.361700  0.441650  0.993700  1.0  0.0346
  C  C179  1  0.332000  0.469510  0.037300  1.0  -0.0307
  C  C180  1  0.281400  0.429110  0.944600  1.0  0.054
  C  C181  1  0.314200  0.429700  0.887200  1.0  -0.0864
  C  C182  1  0.237600  0.421600  0.839700  1.0  -0.0997
  C  C183  1  0.126900  0.413320  0.849900  1.0  0.044
  C  C184  1  0.095300  0.411510  0.907600  1.0  -0.1221
  C  C185  1  0.172100  0.419040  0.954700  1.0  0.0101
  C  C186  1  0.666667  0.426300  0.036400  1.0  0.7835
  C  C187  1  0.273900  0.424500  0.778500  1.0  0.1399
  C  C188  1  0.977700  0.402340  0.917800  1.0  0.7804
  C  C189  1  0.802300  0.829850  0.622000  1.0  0.7581
  C  C190  1  0.857000  0.789350  0.644900  1.0  -0.138
  C  C191  1  0.848700  0.751720  0.611300  1.0  0.0836
  C  C192  1  0.898100  0.713530  0.632100  1.0  -0.1376
  C  C193  1  0.958300  0.713640  0.686400  1.0  0.0086
  C  C194  1  0.967400  0.751180  0.720700  1.0  0.0252
  C  C195  1  0.916900  0.788790  0.699200  1.0  -0.0394
  C  C196  1  0.890300  0.673000  0.595500  1.0  0.7383
  C  C197  1  0.877500  0.982310  0.623400  1.0  0.7549
  C  C198  1  0.909200  0.015540  0.581000  1.0  -0.1131
  C  C199  1  0.016800  0.029620  0.581200  1.0  0.0179
  C  C200  1  0.048400  0.058530  0.538100  1.0  -0.1295
  C  C201  1  0.971500  0.072650  0.494600  1.0  -0.0575
  C  C202  1  0.861700  0.058350  0.493700  1.0  0.035
  C  C203  1  0.832000  0.030490  0.537300  1.0  -0.0305
  C  C204  1  0.781400  0.070890  0.444600  1.0  0.0543
  C  C205  1  0.814200  0.070300  0.387200  1.0  -0.0859
  C  C206  1  0.737600  0.078400  0.339700  1.0  -0.0993
  C  C207  1  0.626900  0.086680  0.349900  1.0  0.0442
  C  C208  1  0.595300  0.088490  0.407600  1.0  -0.1219
  C  C209  1  0.672100  0.080960  0.454700  1.0  0.0105
  C  C210  1  0.166600  0.073700  0.536400  1.0  0.776
  C  C211  1  0.773900  0.075500  0.278500  1.0  0.1421
  C  C212  1  0.477700  0.097660  0.417800  1.0  0.7807
  C  C213  1  0.302300  0.329850  0.622000  1.0  0.7581
  C  C214  1  0.357000  0.289350  0.644900  1.0  -0.138
  C  C215  1  0.348700  0.251720  0.611300  1.0  0.0836
  C  C216  1  0.398100  0.213530  0.632100  1.0  -0.1376
  C  C217  1  0.458300  0.213640  0.686400  1.0  0.0086
  C  C218  1  0.467400  0.251180  0.720700  1.0  0.0252
  C  C219  1  0.416900  0.288790  0.699200  1.0  -0.0394
  C  C220  1  0.390300  0.173000  0.595500  1.0  0.7383
  C  C221  1  0.377500  0.482310  0.623400  1.0  0.7544
  C  C222  1  0.409200  0.515540  0.581000  1.0  -0.1131
  C  C223  1  0.516800  0.529620  0.581200  1.0  0.0179
  C  C224  1  0.548400  0.558530  0.538100  1.0  -0.1296
  C  C225  1  0.471500  0.572650  0.494600  1.0  -0.0575
  C  C226  1  0.361700  0.558350  0.493700  1.0  0.035
  C  C227  1  0.332000  0.530490  0.537300  1.0  -0.0305
  C  C228  1  0.281400  0.570890  0.444600  1.0  0.0543
  C  C229  1  0.314200  0.570300  0.387200  1.0  -0.0859
  C  C230  1  0.237600  0.578400  0.339700  1.0  -0.0993
  C  C231  1  0.126900  0.586680  0.349900  1.0  0.0442
  C  C232  1  0.095300  0.588490  0.407600  1.0  -0.1219
  C  C233  1  0.172100  0.580960  0.454700  1.0  0.0105
  C  C234  1  0.666667  0.573700  0.536400  1.0  0.7847
  C  C235  1  0.273900  0.575500  0.278500  1.0  0.1421
  C  C236  1  0.977700  0.597660  0.417800  1.0  0.7807
  C  C237  1  0.197700  0.829850  0.878000  1.0  0.7577
  C  C238  1  0.143000  0.789350  0.855100  1.0  -0.1383
  C  C239  1  0.151300  0.751720  0.888700  1.0  0.0825
  C  C240  1  0.101900  0.713530  0.867900  1.0  -0.1382
  C  C241  1  0.041700  0.713640  0.813600  1.0  0.0076
  C  C242  1  0.032600  0.751180  0.779300  1.0  0.0254
  C  C243  1  0.083100  0.788790  0.800800  1.0  -0.039
  C  C244  1  0.109700  0.673000  0.904500  1.0  0.7383
  C  C245  1  0.122500  0.982310  0.876600  1.0  0.7551
  C  C246  1  0.090800  0.015540  0.919000  1.0  -0.1129
  C  C247  1  0.983200  0.029620  0.918800  1.0  0.0166
  C  C248  1  0.951600  0.058530  0.961900  1.0  -0.1309
  C  C249  1  0.028500  0.072650  0.005400  1.0  -0.0601
  C  C250  1  0.138300  0.058350  0.006300  1.0  0.0362
  C  C251  1  0.168000  0.030490  0.962700  1.0  -0.0299
  C  C252  1  0.218600  0.070890  0.055400  1.0  0.0539
  C  C253  1  0.185800  0.070300  0.112800  1.0  -0.0865
  C  C254  1  0.262400  0.078400  0.160300  1.0  -0.1001
  C  C255  1  0.373100  0.086680  0.150100  1.0  0.0446
  C  C256  1  0.404700  0.088490  0.092400  1.0  -0.12
  C  C257  1  0.327900  0.080960  0.045300  1.0  0.0118
  C  C258  1  0.833400  0.073700  0.963600  1.0  0.7753
  C  C259  1  0.226100  0.075500  0.221500  1.0  0.1448
  C  C260  1  0.522300  0.097660  0.082200  1.0  0.7798
  C  C261  1  0.697700  0.329850  0.878000  1.0  0.7577
  C  C262  1  0.643000  0.289350  0.855100  1.0  -0.1383
  C  C263  1  0.651300  0.251720  0.888700  1.0  0.0825
  C  C264  1  0.601900  0.213530  0.867900  1.0  -0.1382
  C  C265  1  0.541700  0.213640  0.813600  1.0  0.0076
  C  C266  1  0.532600  0.251180  0.779300  1.0  0.0254
  C  C267  1  0.583100  0.288790  0.800800  1.0  -0.039
  C  C268  1  0.609700  0.173000  0.904500  1.0  0.7383
  C  C269  1  0.622500  0.482310  0.876600  1.0  0.7553
  C  C270  1  0.590800  0.515540  0.919000  1.0  -0.1129
  C  C271  1  0.483200  0.529620  0.918800  1.0  0.0166
  C  C272  1  0.451600  0.558530  0.961900  1.0  -0.1309
  C  C273  1  0.528500  0.572650  0.005400  1.0  -0.0606
  C  C274  1  0.638300  0.558350  0.006300  1.0  0.0362
  C  C275  1  0.668000  0.530490  0.962700  1.0  -0.0299
  C  C276  1  0.718600  0.570890  0.055400  1.0  0.0539
  C  C277  1  0.685800  0.570300  0.112800  1.0  -0.0865
  C  C278  1  0.762400  0.578400  0.160300  1.0  -0.1001
  C  C279  1  0.873100  0.586680  0.150100  1.0  0.0446
  C  C280  1  0.904700  0.588490  0.092400  1.0  -0.12
  C  C281  1  0.827900  0.580960  0.045300  1.0  0.0118
  C  C282  1  0.333400  0.573700  0.963600  1.0  0.7753
  C  C283  1  0.726100  0.575500  0.221500  1.0  0.1448
  C  C284  1  0.022300  0.597660  0.082200  1.0  0.7798
  O  O285  1  0.260600  0.172880  0.423480  1.0  -0.5957
  O  O286  1  0.175600  0.135810  0.348930  1.0  -0.5792
  O  O287  1  0.159400  0.322990  0.454540  1.0  -0.5653
  O  O288  1  0.069100  0.360420  0.385300  1.0  -0.4292
  O  O289  1  0.224600  0.029830  0.381040  1.0  -0.5862
  O  O290  1  0.052300  0.034380  0.341540  1.0  -0.6025
  O  O291  1  0.762500  0.939400  0.427000  1.0  -0.5034
  O  O292  1  0.816300  0.901190  0.504930  1.0  -0.5772
  O  O293  1  0.122300  0.923400  0.728500  1.0  -0.4976
  O  O294  1  0.297900  0.920360  0.761380  1.0  -0.559
  O  O295  1  0.589000  0.903650  0.625610  1.0  -0.6226
  O  O296  1  0.546000  0.893880  0.530660  1.0  -0.5704
  O  O297  1  0.163300  0.960700  0.728200  1.0  -0.5163
  O  O298  1  0.760600  0.672880  0.423480  1.0  -0.5957
  O  O299  1  0.675600  0.635810  0.348930  1.0  -0.5792
  O  O300  1  0.659400  0.822990  0.454540  1.0  -0.5653
  O  O301  1  0.569100  0.860420  0.385300  1.0  -0.4292
  O  O302  1  0.724600  0.529830  0.381040  1.0  -0.5862
  O  O303  1  0.552300  0.534380  0.341540  1.0  -0.6025
  O  O304  1  0.262500  0.439400  0.427000  1.0  -0.5034
  O  O305  1  0.316300  0.401190  0.504930  1.0  -0.5772
  O  O306  1  0.622300  0.423400  0.728500  1.0  -0.4976
  O  O307  1  0.797900  0.420360  0.761380  1.0  -0.559
  O  O308  1  0.089000  0.403650  0.625610  1.0  -0.6226
  O  O309  1  0.046000  0.393880  0.530660  1.0  -0.5704
  O  O310  1  0.663300  0.460700  0.728200  1.0  -0.5163
  O  O311  1  0.739400  0.172880  0.076520  1.0  -0.5984
  O  O312  1  0.824400  0.135810  0.151070  1.0  -0.58
  O  O313  1  0.840600  0.322990  0.045460  1.0  -0.5645
  O  O314  1  0.930900  0.360420  0.114700  1.0  -0.4281
  O  O315  1  0.775400  0.029830  0.118960  1.0  -0.5885
  O  O316  1  0.947700  0.034380  0.158460  1.0  -0.6034
  O  O317  1  0.237500  0.939400  0.073000  1.0  -0.5006
  O  O318  1  0.183700  0.901190  0.995070  1.0  -0.5758
  O  O319  1  0.877700  0.923400  0.771500  1.0  -0.498
  O  O320  1  0.702100  0.920360  0.738620  1.0  -0.559
  O  O321  1  0.411000  0.903650  0.874390  1.0  -0.6192
  O  O322  1  0.454000  0.893880  0.969340  1.0  -0.5706
  O  O323  1  0.836700  0.960700  0.771800  1.0  -0.517
  O  O324  1  0.239400  0.672880  0.076520  1.0  -0.5984
  O  O325  1  0.324400  0.635810  0.151070  1.0  -0.58
  O  O326  1  0.340600  0.822990  0.045460  1.0  -0.5645
  O  O327  1  0.430900  0.860420  0.114700  1.0  -0.4281
  O  O328  1  0.275400  0.529830  0.118960  1.0  -0.5885
  O  O329  1  0.447700  0.534380  0.158460  1.0  -0.6034
  O  O330  1  0.737500  0.439400  0.073000  1.0  -0.5137
  O  O331  1  0.683700  0.401190  0.995070  1.0  -0.5758
  O  O332  1  0.377700  0.423400  0.771500  1.0  -0.498
  O  O333  1  0.202100  0.420360  0.738620  1.0  -0.559
  O  O334  1  0.911000  0.403650  0.874390  1.0  -0.6192
  O  O335  1  0.954000  0.393880  0.969340  1.0  -0.5699
  O  O336  1  0.336700  0.460700  0.771800  1.0  -0.517
  O  O337  1  0.739400  0.827120  0.576520  1.0  -0.5987
  O  O338  1  0.824400  0.864190  0.651070  1.0  -0.58
  O  O339  1  0.840600  0.677010  0.545460  1.0  -0.5649
  O  O340  1  0.930900  0.639580  0.614700  1.0  -0.4274
  O  O341  1  0.775400  0.970170  0.618960  1.0  -0.5885
  O  O342  1  0.947700  0.965620  0.658460  1.0  -0.6047
  O  O343  1  0.237500  0.060600  0.573000  1.0  -0.5004
  O  O344  1  0.183700  0.098810  0.495070  1.0  -0.576
  O  O345  1  0.877700  0.076600  0.271500  1.0  -0.4994
  O  O346  1  0.702100  0.079640  0.238620  1.0  -0.5589
  O  O347  1  0.411000  0.096350  0.374390  1.0  -0.6193
  O  O348  1  0.454000  0.106120  0.469340  1.0  -0.5702
  O  O349  1  0.836700  0.039300  0.271800  1.0  -0.5201
  O  O350  1  0.239400  0.327120  0.576520  1.0  -0.5987
  O  O351  1  0.324400  0.364190  0.651070  1.0  -0.58
  O  O352  1  0.340600  0.177010  0.545460  1.0  -0.5649
  O  O353  1  0.430900  0.139580  0.614700  1.0  -0.4274
  O  O354  1  0.275400  0.470170  0.618960  1.0  -0.5885
  O  O355  1  0.447700  0.465620  0.658460  1.0  -0.6047
  O  O356  1  0.737500  0.560600  0.573000  1.0  -0.5133
  O  O357  1  0.683700  0.598810  0.495070  1.0  -0.5765
  O  O358  1  0.377700  0.576600  0.271500  1.0  -0.4994
  O  O359  1  0.202100  0.579640  0.238620  1.0  -0.5589
  O  O360  1  0.911000  0.596350  0.374390  1.0  -0.6193
  O  O361  1  0.954000  0.606120  0.469340  1.0  -0.5706
  O  O362  1  0.336700  0.539300  0.271800  1.0  -0.5201
  O  O363  1  0.260600  0.827120  0.923480  1.0  -0.5982
  O  O364  1  0.175600  0.864190  0.848930  1.0  -0.5796
  O  O365  1  0.159400  0.677010  0.954540  1.0  -0.5653
  O  O366  1  0.069100  0.639580  0.885300  1.0  -0.4294
  O  O367  1  0.224600  0.970170  0.881040  1.0  -0.5872
  O  O368  1  0.052300  0.965620  0.841540  1.0  -0.6027
  O  O369  1  0.762500  0.060600  0.927000  1.0  -0.5035
  O  O370  1  0.816300  0.098810  0.004930  1.0  -0.5762
  O  O371  1  0.122300  0.076600  0.228500  1.0  -0.499
  O  O372  1  0.297900  0.079640  0.261380  1.0  -0.5586
  O  O373  1  0.589000  0.096350  0.125610  1.0  -0.6226
  O  O374  1  0.546000  0.106120  0.030660  1.0  -0.5693
  O  O375  1  0.163300  0.039300  0.228200  1.0  -0.5192
  O  O376  1  0.760600  0.327120  0.923480  1.0  -0.5982
  O  O377  1  0.675600  0.364190  0.848930  1.0  -0.5796
  O  O378  1  0.659400  0.177010  0.954540  1.0  -0.5653
  O  O379  1  0.569100  0.139580  0.885300  1.0  -0.4294
  O  O380  1  0.724600  0.470170  0.881040  1.0  -0.5872
  O  O381  1  0.552300  0.465620  0.841540  1.0  -0.6027
  O  O382  1  0.262500  0.560600  0.927000  1.0  -0.5035
  O  O383  1  0.316300  0.598810  0.004930  1.0  -0.5762
  O  O384  1  0.622300  0.576600  0.228500  1.0  -0.499
  O  O385  1  0.797900  0.579640  0.261380  1.0  -0.5586
  O  O386  1  0.089000  0.596350  0.125610  1.0  -0.6226
  O  O387  1  0.046000  0.606120  0.030660  1.0  -0.5693
  O  O388  1  0.663300  0.539300  0.228200  1.0  -0.5192
