# generated using pymatgen
data_ZnH6C4N3
_symmetry_space_group_name_H-M   'P 1'
_cell_length_a   11.34690000
_cell_length_b   12.28710000
_cell_length_c   12.28710000
_cell_angle_alpha   69.03100000
_cell_angle_beta   72.07160000
_cell_angle_gamma   107.92800000
_symmetry_Int_Tables_number   1
_chemical_formula_structural   ZnH6C4N3
_chemical_formula_sum   'Zn6 H36 C24 N18'
_cell_volume   1342.99112887
_cell_formula_units_Z   6
loop_
 _symmetry_equiv_pos_site_id
 _symmetry_equiv_pos_as_xyz
  1  'x, y, z'
loop_
 _atom_site_type_symbol
 _atom_site_label
 _atom_site_symmetry_multiplicity
 _atom_site_fract_x
 _atom_site_fract_y
 _atom_site_fract_z
 _atom_site_occupancy
 _atom_site_charge
  Zn  Zn1  1  0.687620  0.535240  0.937750  1.0  0.0538
  Zn  Zn2  1  0.625370  0.937750  0.527010  1.0  0.0548
  Zn  Zn3  1  0.152380  0.527010  0.535240  1.0  0.0472
  Zn  Zn4  1  0.312380  0.464760  0.062250  1.0  0.0569
  Zn  Zn5  1  0.374630  0.062250  0.472990  1.0  0.0561
  Zn  Zn6  1  0.847620  0.472990  0.464760  1.0  0.0494
  H  H7  1  0.268600  0.670600  0.918100  1.0  0.135
  H  H8  1  0.361600  0.823700  0.824300  1.0  0.1467
  H  H9  1  0.319100  0.732600  0.765900  1.0  0.141
  H  H10  1  0.871200  0.759900  0.682200  1.0  0.1313
  H  H11  1  0.846900  0.814800  0.559200  1.0  0.1271
  H  H12  1  0.883400  0.901400  0.623300  1.0  0.1387
  H  H13  1  0.186700  0.918100  0.411300  1.0  0.1356
  H  H14  1  0.185900  0.824300  0.352000  1.0  0.1452
  H  H15  1  0.085000  0.765900  0.501500  1.0  0.1401
  H  H16  1  0.553400  0.682200  0.557900  1.0  0.1308
  H  H17  1  0.406100  0.559200  0.626000  1.0  0.1295
  H  H18  1  0.506700  0.623300  0.475300  1.0  0.1386
  H  H19  1  0.598000  0.411300  0.670600  1.0  0.1351
  H  H20  1  0.537900  0.352000  0.823700  1.0  0.1459
  H  H21  1  0.586500  0.501500  0.732600  1.0  0.1398
  H  H22  1  0.111300  0.557900  0.759900  1.0  0.1326
  H  H23  1  0.032100  0.626000  0.814800  1.0  0.1279
  H  H24  1  0.982000  0.475300  0.901400  1.0  0.1399
  H  H25  1  0.731400  0.329400  0.081900  1.0  0.1348
  H  H26  1  0.638400  0.176300  0.175700  1.0  0.1468
  H  H27  1  0.680900  0.267400  0.234100  1.0  0.1413
  H  H28  1  0.128800  0.240100  0.317800  1.0  0.1306
  H  H29  1  0.153100  0.185200  0.440800  1.0  0.1285
  H  H30  1  0.116600  0.098600  0.376700  1.0  0.1384
  H  H31  1  0.813300  0.081900  0.588700  1.0  0.1353
  H  H32  1  0.814100  0.175700  0.648000  1.0  0.1457
  H  H33  1  0.915000  0.234100  0.498500  1.0  0.14
  H  H34  1  0.446600  0.317800  0.442100  1.0  0.1309
  H  H35  1  0.593900  0.440800  0.374000  1.0  0.1274
  H  H36  1  0.493300  0.376700  0.524700  1.0  0.1384
  H  H37  1  0.402000  0.588700  0.329400  1.0  0.1355
  H  H38  1  0.462100  0.648000  0.176300  1.0  0.1454
  H  H39  1  0.413500  0.498500  0.267400  1.0  0.1397
  H  H40  1  0.888700  0.442100  0.240100  1.0  0.131
  H  H41  1  0.967900  0.374000  0.185200  1.0  0.129
  H  H42  1  0.018000  0.524700  0.098600  1.0  0.1389
  C  C43  1  0.344100  0.739100  0.832100  1.0  -0.4279
  C  C44  1  0.472400  0.724100  0.813200  1.0  0.3885
  C  C45  1  0.682800  0.756400  0.729700  1.0  0.39
  C  C46  1  0.834500  0.813200  0.640700  1.0  -0.4289
  C  C47  1  0.176200  0.832100  0.428800  1.0  -0.4279
  C  C48  1  0.285600  0.813200  0.462700  1.0  0.3887
  C  C49  1  0.412500  0.729700  0.513900  1.0  0.3909
  C  C50  1  0.475200  0.640700  0.546100  1.0  -0.4286
  C  C51  1  0.605000  0.428800  0.739100  1.0  -0.4266
  C  C52  1  0.748300  0.462700  0.724100  1.0  0.3891
  C  C53  1  0.926400  0.513900  0.756400  1.0  0.3899
  C  C54  1  0.021300  0.546100  0.813200  1.0  -0.4333
  C  C55  1  0.655900  0.260900  0.167900  1.0  -0.4291
  C  C56  1  0.527600  0.275900  0.186800  1.0  0.3903
  C  C57  1  0.317200  0.243600  0.270300  1.0  0.3906
  C  C58  1  0.165500  0.186800  0.359300  1.0  -0.4268
  C  C59  1  0.823800  0.167900  0.571200  1.0  -0.4294
  C  C60  1  0.714400  0.186800  0.537300  1.0  0.3895
  C  C61  1  0.587500  0.270300  0.486100  1.0  0.3907
  C  C62  1  0.524800  0.359300  0.453900  1.0  -0.4266
  C  C63  1  0.395000  0.571200  0.260900  1.0  -0.4291
  C  C64  1  0.251700  0.537300  0.275900  1.0  0.3892
  C  C65  1  0.073600  0.486100  0.243600  1.0  0.3904
  C  C66  1  0.978700  0.453900  0.186800  1.0  -0.4297
  N  N67  1  0.614600  0.649800  0.847200  1.0  -0.1944
  N  N68  1  0.478100  0.629400  0.900900  1.0  -0.2073
  N  N69  1  0.597200  0.805900  0.702700  1.0  -0.3869
  N  N70  1  0.461800  0.847200  0.503000  1.0  -0.1986
  N  N71  1  0.379000  0.900900  0.469700  1.0  -0.2112
  N  N72  1  0.299900  0.702700  0.491400  1.0  -0.3884
  N  N73  1  0.964800  0.503000  0.649800  1.0  -0.2011
  N  N74  1  0.848700  0.469700  0.629400  1.0  -0.2079
  N  N75  1  0.791300  0.491400  0.805900  1.0  -0.388
  N  N76  1  0.385400  0.350200  0.152800  1.0  -0.1971
  N  N77  1  0.521900  0.370600  0.099100  1.0  -0.2076
  N  N78  1  0.402800  0.194100  0.297300  1.0  -0.3863
  N  N79  1  0.538200  0.152800  0.497000  1.0  -0.1976
  N  N80  1  0.621000  0.099100  0.530300  1.0  -0.2109
  N  N81  1  0.700100  0.297300  0.508600  1.0  -0.3889
  N  N82  1  0.035200  0.497000  0.350200  1.0  -0.2026
  N  N83  1  0.151300  0.530300  0.370600  1.0  -0.2101
  N  N84  1  0.208700  0.508600  0.194100  1.0  -0.3857
