# generated using pymatgen
data_U2H10C16O9
_symmetry_space_group_name_H-M   'P 1'
_cell_length_a   9.66550000
_cell_length_b   11.00200000
_cell_length_c   15.30400000
_cell_angle_alpha   108.95000000
_cell_angle_beta   95.14000000
_cell_angle_gamma   109.32000000
_symmetry_Int_Tables_number   1
_chemical_formula_structural   U2H10C16O9
_chemical_formula_sum   'U4 H20 C32 O18'
_cell_volume   1416.70783048
_cell_formula_units_Z   2
loop_
 _symmetry_equiv_pos_site_id
 _symmetry_equiv_pos_as_xyz
  1  'x, y, z'
loop_
 _atom_site_type_symbol
 _atom_site_label
 _atom_site_symmetry_multiplicity
 _atom_site_fract_x
 _atom_site_fract_y
 _atom_site_fract_z
 _atom_site_occupancy
 _atom_site_charge
  U  U1  1  0.886700  0.189040  0.113750  1.0  1.8419
  U  U2  1  0.149720  0.664070  0.499760  1.0  1.8071
  U  U3  1  0.113300  0.810960  0.886250  1.0  1.841
  U  U4  1  0.850280  0.335930  0.500240  1.0  1.8105
  H  H5  1  0.924400  0.621500  0.060200  1.0  0.0755
  H  H6  1  0.883100  0.952800  0.244800  1.0  0.0715
  H  H7  1  0.864400  0.853500  0.356200  1.0  0.0837
  H  H8  1  0.843600  0.621800  0.311900  1.0  0.0873
  H  H9  1  0.000000  0.420000  0.354000  1.0  0.4049
  H  H10  1  0.896000  0.460000  0.403000  1.0  0.3975
  H  H11  1  0.515800  0.968300  0.377400  1.0  0.0863
  H  H12  1  0.215800  0.619800  0.174400  1.0  0.0737
  H  H13  1  0.328600  0.682700  0.060600  1.0  0.08
  H  H14  1  0.536000  0.890600  0.105100  1.0  0.0878
  H  H15  1  0.075600  0.378500  0.939800  1.0  0.0756
  H  H16  1  0.116900  0.047200  0.755200  1.0  0.071
  H  H17  1  0.135600  0.146500  0.643800  1.0  0.0832
  H  H18  1  0.156400  0.378200  0.688100  1.0  0.0876
  H  H19  1  0.000000  0.580000  0.646000  1.0  0.4058
  H  H20  1  0.104000  0.540000  0.597000  1.0  0.3966
  H  H21  1  0.484200  0.031700  0.622600  1.0  0.0856
  H  H22  1  0.784200  0.380200  0.825600  1.0  0.0743
  H  H23  1  0.671400  0.317300  0.939400  1.0  0.0805
  H  H24  1  0.464000  0.109400  0.894900  1.0  0.0878
  C  C25  1  0.883600  0.458300  0.157600  1.0  0.6581
  C  C26  1  0.885100  0.600600  0.183200  1.0  -0.1391
  C  C27  1  0.908700  0.666800  0.119000  1.0  -0.0607
  C  C28  1  0.909100  0.798100  0.142000  1.0  -0.1808
  C  C29  1  0.887000  0.865200  0.230000  1.0  -0.0431
  C  C30  1  0.871000  0.804500  0.295400  1.0  -0.1378
  C  C31  1  0.863200  0.667000  0.269900  1.0  -0.0987
  C  C32  1  0.930500  0.868900  0.073400  1.0  0.6956
  C  C33  1  0.678500  0.079600  0.272900  1.0  0.6597
  C  C34  1  0.551500  0.946500  0.246200  1.0  -0.1865
  C  C35  1  0.480500  0.909500  0.313900  1.0  -0.0115
  C  C36  1  0.357900  0.786100  0.287700  1.0  -0.1853
  C  C37  1  0.299900  0.701800  0.192300  1.0  -0.055
  C  C38  1  0.367000  0.739700  0.124300  1.0  -0.1187
  C  C39  1  0.492300  0.863700  0.151000  1.0  -0.092
  C  C40  1  0.281200  0.747800  0.360200  1.0  0.6708
  C  C41  1  0.116400  0.541700  0.842400  1.0  0.6576
  C  C42  1  0.114900  0.399400  0.816800  1.0  -0.1408
  C  C43  1  0.091300  0.333200  0.881000  1.0  -0.0633
  C  C44  1  0.090900  0.201900  0.858000  1.0  -0.183
  C  C45  1  0.113000  0.134800  0.770000  1.0  -0.0427
  C  C46  1  0.129000  0.195500  0.704600  1.0  -0.1349
  C  C47  1  0.136800  0.333000  0.730100  1.0  -0.0993
  C  C48  1  0.069500  0.131100  0.926600  1.0  0.6961
  C  C49  1  0.321500  0.920400  0.727100  1.0  0.6587
  C  C50  1  0.448500  0.053500  0.753800  1.0  -0.1877
  C  C51  1  0.519500  0.090500  0.686100  1.0  -0.0109
  C  C52  1  0.642100  0.213900  0.712300  1.0  -0.1847
  C  C53  1  0.700100  0.298200  0.807700  1.0  -0.0547
  C  C54  1  0.633000  0.260300  0.875700  1.0  -0.1198
  C  C55  1  0.507700  0.136300  0.849000  1.0  -0.0932
  C  C56  1  0.718800  0.252200  0.639800  1.0  0.67
  O  O57  1  0.825600  0.385700  0.205300  1.0  -0.6408
  O  O58  1  0.939300  0.407600  0.089200  1.0  -0.6309
  O  O59  1  0.904000  0.975300  0.088400  1.0  -0.7428
  O  O60  1  0.972600  0.817700  0.000500  1.0  -0.7451
  O  O61  1  0.976400  0.442000  0.406600  1.0  -0.8305
  O  O62  1  0.176000  0.630200  0.336200  1.0  -0.7046
  O  O63  1  0.325300  0.828300  0.445200  1.0  -0.7047
  O  O64  1  0.746300  0.112800  0.213200  1.0  -0.738
  O  O65  1  0.724000  0.157000  0.355500  1.0  -0.7301
  O  O66  1  0.174400  0.614300  0.794700  1.0  -0.6405
  O  O67  1  0.060700  0.592400  0.910800  1.0  -0.6319
  O  O68  1  0.096000  0.024700  0.911600  1.0  -0.7442
  O  O69  1  0.027400  0.182300  0.999500  1.0  -0.7454
  O  O70  1  0.023600  0.558000  0.593400  1.0  -0.8354
  O  O71  1  0.824000  0.369800  0.663800  1.0  -0.7043
  O  O72  1  0.674700  0.171700  0.554800  1.0  -0.7039
  O  O73  1  0.253700  0.887200  0.786800  1.0  -0.7374
  O  O74  1  0.276000  0.843000  0.644500  1.0  -0.7284
