# generated using pymatgen
data_U2H12C16N2O9
_symmetry_space_group_name_H-M   'P 1'
_cell_length_a   9.64160000
_cell_length_b   10.97300000
_cell_length_c   15.99700000
_cell_angle_alpha   109.52000000
_cell_angle_beta   91.56000000
_cell_angle_gamma   109.61000000
_symmetry_Int_Tables_number   1
_chemical_formula_structural   U2H12C16N2O9
_chemical_formula_sum   'U4 H24 C32 N4 O18'
_cell_volume   1484.01733663
_cell_formula_units_Z   2
loop_
 _symmetry_equiv_pos_site_id
 _symmetry_equiv_pos_as_xyz
  1  'x, y, z'
loop_
 _atom_site_type_symbol
 _atom_site_label
 _atom_site_symmetry_multiplicity
 _atom_site_fract_x
 _atom_site_fract_y
 _atom_site_fract_z
 _atom_site_occupancy
 _atom_site_charge
  U  U1  1  0.100970  0.299710  0.379780  1.0  1.9282
  U  U2  1  0.854950  0.829000  0.996800  1.0  1.6628
  U  U3  1  0.899030  0.700290  0.620220  1.0  1.927
  U  U4  1  0.145050  0.171000  0.003200  1.0  1.6577
  H  H5  1  0.103300  0.842000  0.182900  1.0  0.0779
  H  H6  1  0.065000  0.514700  0.252400  1.0  0.0904
  H  H7  1  0.066800  0.870800  0.437900  1.0  0.0916
  H  H8  1  0.091200  0.622700  0.072900  1.0  0.3181
  H  H9  1  0.086400  0.504900  0.100700  1.0  0.32
  H  H10  1  0.769700  0.855900  0.299100  1.0  0.0761
  H  H11  1  0.439200  0.594400  0.375200  1.0  0.0847
  H  H12  1  0.462200  0.525200  0.114200  1.0  0.0875
  H  H13  1  0.637800  0.793600  0.485100  1.0  0.3259
  H  H14  1  0.758300  0.889400  0.455600  1.0  0.3133
  H  H15  1  0.047100  0.910500  0.878100  1.0  0.3495
  H  H16  1  0.950200  0.943600  0.873700  1.0  0.3733
  H  H17  1  0.896700  0.158000  0.817100  1.0  0.0776
  H  H18  1  0.935000  0.485300  0.747600  1.0  0.0903
  H  H19  1  0.933200  0.129200  0.562100  1.0  0.0908
  H  H20  1  0.908800  0.377300  0.927100  1.0  0.319
  H  H21  1  0.913600  0.495100  0.899300  1.0  0.3211
  H  H22  1  0.230300  0.144100  0.700900  1.0  0.0756
  H  H23  1  0.560800  0.405600  0.624800  1.0  0.0858
  H  H24  1  0.537800  0.474800  0.885800  1.0  0.087
  H  H25  1  0.362200  0.206400  0.514900  1.0  0.326
  H  H26  1  0.241700  0.110600  0.544400  1.0  0.3134
  H  H27  1  0.952900  0.089500  0.121900  1.0  0.3459
  H  H28  1  0.049800  0.056400  0.126300  1.0  0.3726
  C  C29  1  0.088600  0.024200  0.333000  1.0  0.6715
  C  C30  1  0.084500  0.879800  0.312400  1.0  -0.169
  C  C31  1  0.093800  0.802200  0.226400  1.0  -0.1547
  C  C32  1  0.089700  0.667700  0.202200  1.0  0.2267
  C  C33  1  0.074200  0.606800  0.267400  1.0  -0.135
  C  C34  1  0.072800  0.687900  0.355400  1.0  -0.1465
  C  C35  1  0.073500  0.821100  0.379300  1.0  -0.0566
  C  C36  1  0.071000  0.626800  0.430400  1.0  0.7013
  C  C37  1  0.707600  0.737500  0.128300  1.0  0.6689
  C  C38  1  0.626500  0.697200  0.198100  1.0  -0.1581
  C  C39  1  0.684600  0.776200  0.284900  1.0  -0.1422
  C  C40  1  0.616000  0.738000  0.354800  1.0  0.2539
  C  C41  1  0.487400  0.620200  0.330800  1.0  -0.1604
  C  C42  1  0.429800  0.539800  0.240400  1.0  -0.1748
  C  C43  1  0.500000  0.578600  0.174400  1.0  -0.0283
  C  C44  1  0.290100  0.411300  0.216000  1.0  0.7661
  C  C45  1  0.911400  0.975800  0.667000  1.0  0.6696
  C  C46  1  0.915500  0.120200  0.687600  1.0  -0.1705
  C  C47  1  0.906200  0.197800  0.773600  1.0  -0.1528
  C  C48  1  0.910300  0.332300  0.797800  1.0  0.229
  C  C49  1  0.925800  0.393200  0.732600  1.0  -0.1357
  C  C50  1  0.927200  0.312100  0.644600  1.0  -0.1447
  C  C51  1  0.926500  0.178900  0.620700  1.0  -0.0547
  C  C52  1  0.929000  0.373200  0.569600  1.0  0.7
  C  C53  1  0.292400  0.262500  0.871700  1.0  0.6686
  C  C54  1  0.373500  0.302800  0.801900  1.0  -0.1584
  C  C55  1  0.315400  0.223800  0.715100  1.0  -0.1428
  C  C56  1  0.384000  0.262000  0.645200  1.0  0.2545
  C  C57  1  0.512600  0.379800  0.669200  1.0  -0.1617
  C  C58  1  0.570200  0.460200  0.759600  1.0  -0.1741
  C  C59  1  0.500000  0.421400  0.825600  1.0  -0.0281
  C  C60  1  0.709900  0.588700  0.784000  1.0  0.7675
  N  N61  1  0.089000  0.588400  0.114200  1.0  -0.7522
  N  N62  1  0.678400  0.816800  0.442800  1.0  -0.7425
  N  N63  1  0.911000  0.411600  0.885800  1.0  -0.7565
  N  N64  1  0.321600  0.183200  0.557200  1.0  -0.7393
  O  O65  1  0.145000  0.091100  0.285800  1.0  -0.6533
  O  O66  1  0.037900  0.080000  0.403000  1.0  -0.6666
  O  O67  1  0.032300  0.683700  0.499700  1.0  -0.7345
  O  O68  1  0.103700  0.522700  0.413600  1.0  -0.7375
  O  O69  1  0.676800  0.655800  0.047300  1.0  -0.6695
  O  O70  1  0.801700  0.857900  0.149100  1.0  -0.6973
  O  O71  1  0.224500  0.360500  0.138900  1.0  -0.7387
  O  O72  1  0.243700  0.367900  0.277000  1.0  -0.7851
  O  O73  1  0.002300  0.943900  0.913600  1.0  -0.8768
  O  O74  1  0.855000  0.908900  0.714200  1.0  -0.6532
  O  O75  1  0.962100  0.920000  0.597000  1.0  -0.666
  O  O76  1  0.967700  0.316300  0.500300  1.0  -0.7361
  O  O77  1  0.896300  0.477300  0.586400  1.0  -0.7379
  O  O78  1  0.323200  0.344200  0.952700  1.0  -0.6715
  O  O79  1  0.198300  0.142100  0.850900  1.0  -0.6966
  O  O80  1  0.775500  0.639500  0.861100  1.0  -0.7405
  O  O81  1  0.756300  0.632100  0.723000  1.0  -0.7883
  O  O82  1  0.997700  0.056100  0.086400  1.0  -0.8775
