# generated using pymatgen
data_UH4C8O5
_symmetry_space_group_name_H-M   'P 1'
_cell_length_a   19.70300000
_cell_length_b   9.51970000
_cell_length_c   20.12700000
_cell_angle_alpha   90.00000000
_cell_angle_beta   106.26000000
_cell_angle_gamma   90.00000000
_symmetry_Int_Tables_number   1
_chemical_formula_structural   UH4C8O5
_chemical_formula_sum   'U8 H32 C64 O40'
_cell_volume   3624.15156519
_cell_formula_units_Z   8
loop_
 _symmetry_equiv_pos_site_id
 _symmetry_equiv_pos_as_xyz
  1  'x, y, z'
loop_
 _atom_site_type_symbol
 _atom_site_label
 _atom_site_symmetry_multiplicity
 _atom_site_fract_x
 _atom_site_fract_y
 _atom_site_fract_z
 _atom_site_occupancy
 _atom_site_charge
  U  U1  1  0.104880  0.634920  0.111280  1.0  1.9927
  U  U2  1  0.604880  0.134920  0.111280  1.0  1.9927
  U  U3  1  0.895120  0.634920  0.388720  1.0  1.9944
  U  U4  1  0.395120  0.134920  0.388720  1.0  1.9944
  U  U5  1  0.895120  0.365080  0.888720  1.0  1.9938
  U  U6  1  0.395120  0.865080  0.888720  1.0  1.9938
  U  U7  1  0.104880  0.365080  0.611280  1.0  1.9921
  U  U8  1  0.604880  0.865080  0.611280  1.0  1.9921
  H  H9  1  0.206300  0.465800  0.258300  1.0  0.0879
  H  H10  1  0.180900  0.331200  0.438900  1.0  0.0791
  H  H11  1  0.034200  0.575800  0.314000  1.0  0.0733
  H  H12  1  0.123000  0.354000  0.500000  1.0  0.2924
  H  H13  1  0.706300  0.965800  0.258300  1.0  0.0879
  H  H14  1  0.680900  0.831200  0.438900  1.0  0.0791
  H  H15  1  0.534200  0.075800  0.314000  1.0  0.0733
  H  H16  1  0.623000  0.854000  0.500000  1.0  0.2924
  H  H17  1  0.793700  0.465800  0.241700  1.0  0.0884
  H  H18  1  0.819100  0.331200  0.061100  1.0  0.0792
  H  H19  1  0.965800  0.575800  0.186000  1.0  0.0734
  H  H20  1  0.877000  0.354000  0.000000  1.0  0.2912
  H  H21  1  0.293700  0.965800  0.241700  1.0  0.0884
  H  H22  1  0.319100  0.831200  0.061100  1.0  0.0792
  H  H23  1  0.465800  0.075800  0.186000  1.0  0.0734
  H  H24  1  0.377000  0.854000  0.000000  1.0  0.2912
  H  H25  1  0.793700  0.534200  0.741700  1.0  0.0882
  H  H26  1  0.819100  0.668800  0.561100  1.0  0.0798
  H  H27  1  0.965800  0.424200  0.686000  1.0  0.0734
  H  H28  1  0.877000  0.646000  0.500000  1.0  0.291
  H  H29  1  0.293700  0.034200  0.741700  1.0  0.0882
  H  H30  1  0.319100  0.168800  0.561100  1.0  0.0798
  H  H31  1  0.465800  0.924200  0.686000  1.0  0.0734
  H  H32  1  0.377000  0.146000  0.500000  1.0  0.291
  H  H33  1  0.206300  0.534200  0.758300  1.0  0.0879
  H  H34  1  0.180900  0.668800  0.938900  1.0  0.0788
  H  H35  1  0.034200  0.424200  0.814000  1.0  0.0731
  H  H36  1  0.123000  0.646000  0.000000  1.0  0.2912
  H  H37  1  0.706300  0.034200  0.758300  1.0  0.0879
  H  H38  1  0.680900  0.168800  0.938900  1.0  0.0788
  H  H39  1  0.534200  0.924200  0.814000  1.0  0.0731
  H  H40  1  0.623000  0.146000  0.000000  1.0  0.2912
  C  C41  1  0.117900  0.538200  0.276100  1.0  0.26
  C  C42  1  0.180200  0.464600  0.290200  1.0  -0.1144
  C  C43  1  0.205400  0.387700  0.351600  1.0  -0.1894
  C  C44  1  0.165300  0.383300  0.398400  1.0  -0.1174
  C  C45  1  0.101400  0.457300  0.384500  1.0  -0.1621
  C  C46  1  0.077700  0.530400  0.323900  1.0  -0.1395
  C  C47  1  0.269900  0.301000  0.363400  1.0  0.6225
  C  C48  1  0.056500  0.447700  0.433600  1.0  0.699
  C  C49  1  0.617900  0.038200  0.276100  1.0  0.26
  C  C50  1  0.680200  0.964600  0.290200  1.0  -0.1144
  C  C51  1  0.705400  0.887700  0.351600  1.0  -0.1894
  C  C52  1  0.665300  0.883300  0.398400  1.0  -0.1174
  C  C53  1  0.601400  0.957300  0.384500  1.0  -0.1621
  C  C54  1  0.577700  0.030400  0.323900  1.0  -0.1395
  C  C55  1  0.769900  0.801000  0.363400  1.0  0.6225
  C  C56  1  0.556500  0.947700  0.433600  1.0  0.699
  C  C57  1  0.882100  0.538200  0.223900  1.0  0.257
  C  C58  1  0.819800  0.464600  0.209800  1.0  -0.114
  C  C59  1  0.794600  0.387700  0.148400  1.0  -0.1895
  C  C60  1  0.834700  0.383300  0.101600  1.0  -0.1154
  C  C61  1  0.898600  0.457300  0.115500  1.0  -0.1625
  C  C62  1  0.922300  0.530400  0.176100  1.0  -0.1378
  C  C63  1  0.730100  0.301000  0.136600  1.0  0.623
  C  C64  1  0.943500  0.447700  0.066400  1.0  0.6991
  C  C65  1  0.382100  0.038200  0.223900  1.0  0.257
  C  C66  1  0.319800  0.964600  0.209800  1.0  -0.114
  C  C67  1  0.294600  0.887700  0.148400  1.0  -0.1895
  C  C68  1  0.334700  0.883300  0.101600  1.0  -0.1154
  C  C69  1  0.398600  0.957300  0.115500  1.0  -0.1625
  C  C70  1  0.422300  0.030400  0.176100  1.0  -0.1378
  C  C71  1  0.230100  0.801000  0.136600  1.0  0.623
  C  C72  1  0.443500  0.947700  0.066400  1.0  0.6991
  C  C73  1  0.882100  0.461800  0.723900  1.0  0.2568
  C  C74  1  0.819800  0.535400  0.709800  1.0  -0.1141
  C  C75  1  0.794600  0.612300  0.648400  1.0  -0.1896
  C  C76  1  0.834700  0.616700  0.601600  1.0  -0.1151
  C  C77  1  0.898600  0.542700  0.615500  1.0  -0.1621
  C  C78  1  0.922300  0.469600  0.676100  1.0  -0.1376
  C  C79  1  0.730100  0.699000  0.636600  1.0  0.6231
  C  C80  1  0.943500  0.552300  0.566400  1.0  0.6991
  C  C81  1  0.382100  0.961800  0.723900  1.0  0.2568
  C  C82  1  0.319800  0.035400  0.709800  1.0  -0.1141
  C  C83  1  0.294600  0.112300  0.648400  1.0  -0.1896
  C  C84  1  0.334700  0.116700  0.601600  1.0  -0.1151
  C  C85  1  0.398600  0.042700  0.615500  1.0  -0.1621
  C  C86  1  0.422300  0.969600  0.676100  1.0  -0.1376
  C  C87  1  0.230100  0.199000  0.636600  1.0  0.6231
  C  C88  1  0.443500  0.052300  0.566400  1.0  0.6991
  C  C89  1  0.117900  0.461800  0.776100  1.0  0.2593
  C  C90  1  0.180200  0.535400  0.790200  1.0  -0.1143
  C  C91  1  0.205400  0.612300  0.851600  1.0  -0.1893
  C  C92  1  0.165300  0.616700  0.898400  1.0  -0.1174
  C  C93  1  0.101400  0.542700  0.884500  1.0  -0.1618
  C  C94  1  0.077700  0.469600  0.823900  1.0  -0.1385
  C  C95  1  0.269900  0.699000  0.863400  1.0  0.6229
  C  C96  1  0.056500  0.552300  0.933600  1.0  0.6991
  C  C97  1  0.617900  0.961800  0.776100  1.0  0.2593
  C  C98  1  0.680200  0.035400  0.790200  1.0  -0.1143
  C  C99  1  0.705400  0.112300  0.851600  1.0  -0.1893
  C  C100  1  0.665300  0.116700  0.898400  1.0  -0.1174
  C  C101  1  0.601400  0.042700  0.884500  1.0  -0.1618
  C  C102  1  0.577700  0.969600  0.823900  1.0  -0.1385
  C  C103  1  0.769900  0.199000  0.863400  1.0  0.6229
  C  C104  1  0.556500  0.052300  0.933600  1.0  0.6991
  O  O105  1  0.093200  0.620000  0.219200  1.0  -0.6664
  O  O106  1  0.296800  0.270500  0.315200  1.0  -0.6687
  O  O107  1  0.300100  0.257800  0.424200  1.0  -0.6722
  O  O108  1  0.082000  0.391400  0.491200  1.0  -0.6215
  O  O109  1  0.995500  0.494500  0.414900  1.0  -0.7569
  O  O110  1  0.593200  0.120000  0.219200  1.0  -0.6664
  O  O111  1  0.796800  0.770500  0.315200  1.0  -0.6687
  O  O112  1  0.800100  0.757800  0.424200  1.0  -0.6722
  O  O113  1  0.582000  0.891400  0.491200  1.0  -0.6215
  O  O114  1  0.495500  0.994500  0.414900  1.0  -0.7569
  O  O115  1  0.906800  0.620000  0.280800  1.0  -0.6675
  O  O116  1  0.703200  0.270500  0.184800  1.0  -0.6698
  O  O117  1  0.699900  0.257800  0.075800  1.0  -0.6709
  O  O118  1  0.918000  0.391400  0.008800  1.0  -0.6218
  O  O119  1  0.004500  0.494500  0.085100  1.0  -0.7556
  O  O120  1  0.406800  0.120000  0.280800  1.0  -0.6675
  O  O121  1  0.203200  0.770500  0.184800  1.0  -0.6698
  O  O122  1  0.199900  0.757800  0.075800  1.0  -0.6709
  O  O123  1  0.418000  0.891400  0.008800  1.0  -0.6218
  O  O124  1  0.504500  0.994500  0.085100  1.0  -0.7556
  O  O125  1  0.906800  0.380000  0.780800  1.0  -0.6644
  O  O126  1  0.703200  0.729500  0.684800  1.0  -0.6695
  O  O127  1  0.699900  0.742200  0.575800  1.0  -0.6713
  O  O128  1  0.918000  0.608600  0.508800  1.0  -0.6219
  O  O129  1  0.004500  0.505500  0.585100  1.0  -0.7553
  O  O130  1  0.406800  0.880000  0.780800  1.0  -0.6644
  O  O131  1  0.203200  0.229500  0.684800  1.0  -0.6695
  O  O132  1  0.199900  0.242200  0.575800  1.0  -0.6713
  O  O133  1  0.418000  0.108600  0.508800  1.0  -0.6219
  O  O134  1  0.504500  0.005500  0.585100  1.0  -0.7553
  O  O135  1  0.093200  0.380000  0.719200  1.0  -0.6673
  O  O136  1  0.296800  0.729500  0.815200  1.0  -0.6684
  O  O137  1  0.300100  0.742200  0.924200  1.0  -0.6728
  O  O138  1  0.082000  0.608600  0.991200  1.0  -0.6213
  O  O139  1  0.995500  0.505500  0.914900  1.0  -0.757
  O  O140  1  0.593200  0.880000  0.719200  1.0  -0.6673
  O  O141  1  0.796800  0.229500  0.815200  1.0  -0.6684
  O  O142  1  0.800100  0.242200  0.924200  1.0  -0.6728
  O  O143  1  0.582000  0.108600  0.991200  1.0  -0.6213
  O  O144  1  0.495500  0.005500  0.914900  1.0  -0.757
