# generated using pymatgen
data_CoH21C33N9O4
_symmetry_space_group_name_H-M   'P 1'
_cell_length_a   11.00200000
_cell_length_b   22.15470000
_cell_length_c   16.99570000
_cell_angle_alpha   90.00000000
_cell_angle_beta   100.69700000
_cell_angle_gamma   90.00000000
_symmetry_Int_Tables_number   1
_chemical_formula_structural   CoH21C33N9O4
_chemical_formula_sum   'Co4 H84 C132 N36 O16'
_cell_volume   4070.64549781
_cell_formula_units_Z   4
loop_
 _symmetry_equiv_pos_site_id
 _symmetry_equiv_pos_as_xyz
  1  'x, y, z'
loop_
 _atom_site_type_symbol
 _atom_site_label
 _atom_site_symmetry_multiplicity
 _atom_site_fract_x
 _atom_site_fract_y
 _atom_site_fract_z
 _atom_site_occupancy
 _atom_site_charge
  Co  Co1  1  0.144360  0.557400  0.530590  1.0  0.8621
  Co  Co2  1  0.855640  0.057400  0.969410  1.0  0.8614
  Co  Co3  1  0.855640  0.442600  0.469410  1.0  0.8592
  Co  Co4  1  0.144360  0.942600  0.030590  1.0  0.8602
  H  H5  1  0.382800  0.586900  0.163600  1.0  0.3191
  H  H6  1  0.744200  0.594500  0.820600  1.0  0.2968
  H  H7  1  0.476400  0.476900  0.391100  1.0  0.1149
  H  H8  1  0.173400  0.499300  0.692100  1.0  0.0669
  H  H9  1  0.913500  0.609700  0.595500  1.0  0.0733
  H  H10  1  0.816600  0.600300  0.702900  1.0  0.1163
  H  H11  1  0.263900  0.601000  0.258500  1.0  0.1202
  H  H12  1  0.354700  0.489100  0.486500  1.0  0.0651
  H  H13  1  0.703500  0.513800  0.059100  1.0  0.1058
  H  H14  1  0.153700  0.611300  0.359900  1.0  0.0808
  H  H15  1  0.812400  0.736800  0.268200  1.0  0.1051
  H  H16  1  0.940600  0.672200  0.350500  1.0  0.1061
  H  H17  1  0.671400  0.820200  0.264400  1.0  0.0977
  H  H18  1  0.081400  0.484400  0.800100  1.0  0.1176
  H  H19  1  0.518400  0.654000  0.321000  1.0  0.0927
  H  H20  1  0.536000  0.888400  0.191100  1.0  0.0799
  H  H21  1  0.297900  0.753600  0.119400  1.0  0.1071
  H  H22  1  0.643800  0.586400  0.399800  1.0  0.1001
  H  H23  1  0.578300  0.615800  0.870200  1.0  0.0591
  H  H24  1  0.432000  0.686300  0.191600  1.0  0.0881
  H  H25  1  0.410000  0.618500  0.049900  1.0  0.0802
  H  H26  1  0.617200  0.086900  0.336400  1.0  0.3191
  H  H27  1  0.255800  0.094500  0.679400  1.0  0.2959
  H  H28  1  0.523600  0.976900  0.108900  1.0  0.1138
  H  H29  1  0.826600  0.999300  0.807900  1.0  0.0669
  H  H30  1  0.086500  0.109700  0.904500  1.0  0.0728
  H  H31  1  0.183400  0.100300  0.797100  1.0  0.1165
  H  H32  1  0.736100  0.101000  0.241500  1.0  0.1201
  H  H33  1  0.645300  0.989100  0.013500  1.0  0.0651
  H  H34  1  0.296500  0.013800  0.440900  1.0  0.105
  H  H35  1  0.846300  0.111300  0.140100  1.0  0.0807
  H  H36  1  0.187600  0.236800  0.231800  1.0  0.1052
  H  H37  1  0.059400  0.172200  0.149500  1.0  0.1074
  H  H38  1  0.328600  0.320200  0.235600  1.0  0.0979
  H  H39  1  0.918600  0.984400  0.699900  1.0  0.117
  H  H40  1  0.481600  0.154000  0.179000  1.0  0.0924
  H  H41  1  0.464000  0.388400  0.308900  1.0  0.0802
  H  H42  1  0.702100  0.253600  0.380600  1.0  0.1072
  H  H43  1  0.356200  0.086400  0.100200  1.0  0.0995
  H  H44  1  0.421700  0.115800  0.629800  1.0  0.0589
  H  H45  1  0.568000  0.186300  0.308400  1.0  0.0883
  H  H46  1  0.590000  0.118500  0.450100  1.0  0.0792
  H  H47  1  0.617200  0.413100  0.836400  1.0  0.3198
  H  H48  1  0.255800  0.405500  0.179400  1.0  0.2958
  H  H49  1  0.523600  0.523100  0.608900  1.0  0.1139
  H  H50  1  0.826600  0.500700  0.307900  1.0  0.0669
  H  H51  1  0.086500  0.390300  0.404500  1.0  0.0736
  H  H52  1  0.183400  0.399700  0.297100  1.0  0.1164
  H  H53  1  0.736100  0.399000  0.741500  1.0  0.1202
  H  H54  1  0.645300  0.510900  0.513500  1.0  0.0652
  H  H55  1  0.296500  0.486200  0.940900  1.0  0.1054
  H  H56  1  0.846300  0.388700  0.640100  1.0  0.0805
  H  H57  1  0.187600  0.263200  0.731800  1.0  0.1053
  H  H58  1  0.059400  0.327800  0.649500  1.0  0.1079
  H  H59  1  0.328600  0.179800  0.735600  1.0  0.0987
  H  H60  1  0.918600  0.515600  0.199900  1.0  0.1169
  H  H61  1  0.481600  0.346000  0.679000  1.0  0.0919
  H  H62  1  0.464000  0.111600  0.808900  1.0  0.0801
  H  H63  1  0.702100  0.246400  0.880600  1.0  0.1075
  H  H64  1  0.356200  0.413600  0.600200  1.0  0.0991
  H  H65  1  0.421700  0.384200  0.129800  1.0  0.0592
  H  H66  1  0.568000  0.313700  0.808400  1.0  0.0881
  H  H67  1  0.590000  0.381500  0.950100  1.0  0.079
  H  H68  1  0.382800  0.913100  0.663600  1.0  0.3194
  H  H69  1  0.744200  0.905500  0.320600  1.0  0.297
  H  H70  1  0.476400  0.023100  0.891100  1.0  0.1145
  H  H71  1  0.173400  0.000700  0.192100  1.0  0.0666
  H  H72  1  0.913500  0.890300  0.095500  1.0  0.0733
  H  H73  1  0.816600  0.899700  0.202900  1.0  0.1159
  H  H74  1  0.263900  0.899000  0.758500  1.0  0.12
  H  H75  1  0.354700  0.010900  0.986500  1.0  0.0648
  H  H76  1  0.703500  0.986200  0.559100  1.0  0.1051
  H  H77  1  0.153700  0.888700  0.859900  1.0  0.0797
  H  H78  1  0.812400  0.763200  0.768200  1.0  0.1047
  H  H79  1  0.940600  0.827800  0.850500  1.0  0.1062
  H  H80  1  0.671400  0.679800  0.764400  1.0  0.0976
  H  H81  1  0.081400  0.015600  0.300100  1.0  0.1173
  H  H82  1  0.518400  0.846000  0.821000  1.0  0.0919
  H  H83  1  0.536000  0.611600  0.691100  1.0  0.0802
  H  H84  1  0.297900  0.746400  0.619400  1.0  0.1071
  H  H85  1  0.643800  0.913600  0.899800  1.0  0.0995
  H  H86  1  0.578300  0.884200  0.370200  1.0  0.0588
  H  H87  1  0.432000  0.813700  0.691600  1.0  0.0878
  H  H88  1  0.410000  0.881500  0.549900  1.0  0.0797
  C  C89  1  0.399900  0.828870  0.149200  1.0  -0.1206
  C  C90  1  0.309200  0.872510  0.106700  1.0  0.678
  C  C91  1  0.411000  0.504140  0.383000  1.0  -0.2077
  C  C92  1  0.099700  0.519420  0.693900  1.0  0.185
  C  C93  1  0.458300  0.532980  0.250500  1.0  0.2891
  C  C94  1  0.383500  0.538100  0.313100  1.0  -0.0002
  C  C95  1  0.948100  0.584420  0.637400  1.0  0.1751
  C  C96  1  0.888700  0.578780  0.701500  1.0  -0.1775
  C  C97  1  0.285100  0.578120  0.304900  1.0  -0.1838
  C  C98  1  0.536000  0.543760  0.147700  1.0  0.3809
  C  C99  1  0.337600  0.512390  0.440300  1.0  0.1751
  C  C100  1  0.648400  0.542300  0.032800  1.0  -0.0455
  C  C101  1  0.218700  0.583840  0.366000  1.0  0.1728
  C  C102  1  0.778100  0.706890  0.295600  1.0  -0.1178
  C  C103  1  0.887700  0.578610  0.436700  1.0  0.6701
  C  C104  1  0.806700  0.622260  0.383800  1.0  -0.1731
  C  C105  1  0.650300  0.702630  0.286400  1.0  0.04
  C  C106  1  0.566000  0.746420  0.236700  1.0  0.0491
  C  C107  1  0.937600  0.540660  0.764200  1.0  0.0107
  C  C108  1  0.855300  0.667800  0.344300  1.0  -0.0389
  C  C109  1  0.596000  0.806760  0.235700  1.0  -0.1295
  C  C110  1  0.045700  0.510490  0.759400  1.0  -0.1418
  C  C111  1  0.659800  0.562300  0.957700  1.0  -0.0351
  C  C112  1  0.603800  0.657600  0.326200  1.0  -0.1246
  C  C113  1  0.756500  0.542200  0.915700  1.0  0.2912
  C  C114  1  0.875900  0.532560  0.833800  1.0  0.3824
  C  C115  1  0.514100  0.847830  0.191900  1.0  -0.0337
  C  C116  1  0.555500  0.564300  0.068800  1.0  -0.1039
  C  C117  1  0.372300  0.767410  0.149100  1.0  -0.0697
  C  C118  1  0.678700  0.617100  0.374100  1.0  -0.0685
  C  C119  1  0.572100  0.602800  0.921300  1.0  0.1721
  C  C120  1  0.452800  0.727040  0.192100  1.0  -0.153
  C  C121  1  0.474100  0.604400  0.026100  1.0  0.1605
  C  C122  1  0.600100  0.328870  0.350800  1.0  -0.1204
  C  C123  1  0.690800  0.372510  0.393300  1.0  0.6787
  C  C124  1  0.589000  0.004140  0.117000  1.0  -0.2071
  C  C125  1  0.900300  0.019420  0.806100  1.0  0.1854
  C  C126  1  0.541700  0.032980  0.249500  1.0  0.2898
  C  C127  1  0.616500  0.038100  0.186900  1.0  -0.0011
  C  C128  1  0.051900  0.084420  0.862600  1.0  0.1744
  C  C129  1  0.111300  0.078780  0.798500  1.0  -0.1793
  C  C130  1  0.714900  0.078120  0.195100  1.0  -0.184
  C  C131  1  0.464000  0.043760  0.352300  1.0  0.3816
  C  C132  1  0.662400  0.012390  0.059700  1.0  0.1744
  C  C133  1  0.351600  0.042300  0.467200  1.0  -0.0429
  C  C134  1  0.781300  0.083840  0.134000  1.0  0.1737
  C  C135  1  0.221900  0.206890  0.204400  1.0  -0.1189
  C  C136  1  0.112300  0.078610  0.063300  1.0  0.6695
  C  C137  1  0.193300  0.122260  0.116200  1.0  -0.1734
  C  C138  1  0.349700  0.202630  0.213600  1.0  0.0393
  C  C139  1  0.434000  0.246420  0.263300  1.0  0.049
  C  C140  1  0.062400  0.040660  0.735800  1.0  0.0096
  C  C141  1  0.144700  0.167800  0.155700  1.0  -0.0394
  C  C142  1  0.404000  0.306760  0.264300  1.0  -0.13
  C  C143  1  0.954300  0.010490  0.740600  1.0  -0.1408
  C  C144  1  0.340200  0.062300  0.542300  1.0  -0.0382
  C  C145  1  0.396200  0.157600  0.173800  1.0  -0.1241
  C  C146  1  0.243500  0.042200  0.584300  1.0  0.2916
  C  C147  1  0.124100  0.032560  0.666200  1.0  0.3838
  C  C148  1  0.485900  0.347830  0.308100  1.0  -0.0333
  C  C149  1  0.444500  0.064300  0.431200  1.0  -0.1064
  C  C150  1  0.627700  0.267410  0.350900  1.0  -0.0691
  C  C151  1  0.321300  0.117100  0.125900  1.0  -0.0688
  C  C152  1  0.427900  0.102800  0.578700  1.0  0.1714
  C  C153  1  0.547200  0.227040  0.307900  1.0  -0.152
  C  C154  1  0.525900  0.104400  0.473900  1.0  0.1609
  C  C155  1  0.600100  0.171130  0.850800  1.0  -0.12
  C  C156  1  0.690800  0.127490  0.893300  1.0  0.6798
  C  C157  1  0.589000  0.495860  0.617000  1.0  -0.2072
  C  C158  1  0.900300  0.480580  0.306100  1.0  0.1857
  C  C159  1  0.541700  0.467020  0.749500  1.0  0.2902
  C  C160  1  0.616500  0.461900  0.686900  1.0  -0.0011
  C  C161  1  0.051900  0.415580  0.362600  1.0  0.1734
  C  C162  1  0.111300  0.421220  0.298500  1.0  -0.179
  C  C163  1  0.714900  0.421880  0.695100  1.0  -0.184
  C  C164  1  0.464000  0.456240  0.852300  1.0  0.382
  C  C165  1  0.662400  0.487610  0.559700  1.0  0.1744
  C  C166  1  0.351600  0.457700  0.967200  1.0  -0.0423
  C  C167  1  0.781300  0.416160  0.634000  1.0  0.1728
  C  C168  1  0.221900  0.293110  0.704400  1.0  -0.119
  C  C169  1  0.112300  0.421390  0.563300  1.0  0.6686
  C  C170  1  0.193300  0.377740  0.616200  1.0  -0.1739
  C  C171  1  0.349700  0.297370  0.713600  1.0  0.0387
  C  C172  1  0.434000  0.253580  0.763300  1.0  0.0494
  C  C173  1  0.062400  0.459340  0.235800  1.0  0.0097
  C  C174  1  0.144700  0.332200  0.655700  1.0  -0.0399
  C  C175  1  0.404000  0.193240  0.764300  1.0  -0.1305
  C  C176  1  0.954300  0.489510  0.240600  1.0  -0.1408
  C  C177  1  0.340200  0.437700  0.042300  1.0  -0.0392
  C  C178  1  0.396200  0.342400  0.673800  1.0  -0.1248
  C  C179  1  0.243500  0.457800  0.084300  1.0  0.2916
  C  C180  1  0.124100  0.467440  0.166200  1.0  0.3841
  C  C181  1  0.485900  0.152170  0.808100  1.0  -0.0332
  C  C182  1  0.444500  0.435700  0.931200  1.0  -0.1058
  C  C183  1  0.627700  0.232590  0.850900  1.0  -0.0697
  C  C184  1  0.321300  0.382900  0.625900  1.0  -0.0682
  C  C185  1  0.427900  0.397200  0.078700  1.0  0.1736
  C  C186  1  0.547200  0.272960  0.807900  1.0  -0.1514
  C  C187  1  0.525900  0.395600  0.973900  1.0  0.1607
  C  C188  1  0.399900  0.671130  0.649200  1.0  -0.1207
  C  C189  1  0.309200  0.627490  0.606700  1.0  0.6793
  C  C190  1  0.411000  0.995860  0.883000  1.0  -0.2076
  C  C191  1  0.099700  0.980580  0.193900  1.0  0.1851
  C  C192  1  0.458300  0.967020  0.750500  1.0  0.2898
  C  C193  1  0.383500  0.961900  0.813100  1.0  -1e-04
  C  C194  1  0.948100  0.915580  0.137400  1.0  0.1732
  C  C195  1  0.888700  0.921220  0.201500  1.0  -0.1772
  C  C196  1  0.285100  0.921880  0.804900  1.0  -0.1835
  C  C197  1  0.536000  0.956240  0.647700  1.0  0.3813
  C  C198  1  0.337600  0.987610  0.940300  1.0  0.1751
  C  C199  1  0.648400  0.957700  0.532800  1.0  -0.0446
  C  C200  1  0.218700  0.916160  0.866000  1.0  0.1733
  C  C201  1  0.778100  0.793110  0.795600  1.0  -0.1189
  C  C202  1  0.887700  0.921390  0.936700  1.0  0.6684
  C  C203  1  0.806700  0.877740  0.883800  1.0  -0.174
  C  C204  1  0.650300  0.797370  0.786400  1.0  0.0396
  C  C205  1  0.566000  0.753580  0.736700  1.0  0.0496
  C  C206  1  0.937600  0.959340  0.264200  1.0  0.0111
  C  C207  1  0.855300  0.832200  0.844300  1.0  -0.0386
  C  C208  1  0.596000  0.693240  0.735700  1.0  -0.1292
  C  C209  1  0.045700  0.989510  0.259400  1.0  -0.1413
  C  C210  1  0.659800  0.937700  0.457700  1.0  -0.0357
  C  C211  1  0.603800  0.842400  0.826200  1.0  -0.1241
  C  C212  1  0.756500  0.957800  0.415700  1.0  0.2901
  C  C213  1  0.875900  0.967440  0.333800  1.0  0.3825
  C  C214  1  0.514100  0.652170  0.691900  1.0  -0.0337
  C  C215  1  0.555500  0.935700  0.568800  1.0  -0.1038
  C  C216  1  0.372300  0.732590  0.649100  1.0  -0.0704
  C  C217  1  0.678700  0.882900  0.874100  1.0  -0.0676
  C  C218  1  0.572100  0.897200  0.421300  1.0  0.1738
  C  C219  1  0.452800  0.772960  0.692100  1.0  -0.1528
  C  C220  1  0.474100  0.895600  0.526100  1.0  0.1622
  N  N221  1  0.244200  0.551540  0.433410  1.0  -0.327
  N  N222  1  0.052900  0.555360  0.632220  1.0  -0.3345
  N  N223  1  0.441100  0.562010  0.182180  1.0  -0.2759
  N  N224  1  0.560300  0.497480  0.257440  1.0  -0.2644
  N  N225  1  0.611800  0.504430  0.191300  1.0  -0.3654
  N  N226  1  0.834500  0.496630  0.939900  1.0  -0.2304
  N  N227  1  0.781100  0.565140  0.848440  1.0  -0.266
  N  N228  1  0.913200  0.489140  0.887300  1.0  -0.3564
  N  N229  1  0.479900  0.624700  0.952500  1.0  -0.3993
  N  N230  1  0.755800  0.051540  0.066590  1.0  -0.3288
  N  N231  1  0.947100  0.055360  0.867780  1.0  -0.3339
  N  N232  1  0.558900  0.062010  0.317820  1.0  -0.2753
  N  N233  1  0.439700  0.997480  0.242560  1.0  -0.2639
  N  N234  1  0.388200  0.004430  0.308700  1.0  -0.3657
  N  N235  1  0.165500  0.996630  0.560100  1.0  -0.2299
  N  N236  1  0.218900  0.065140  0.651560  1.0  -0.2665
  N  N237  1  0.086800  0.989140  0.612700  1.0  -0.3563
  N  N238  1  0.520100  0.124700  0.547500  1.0  -0.4015
  N  N239  1  0.755800  0.448460  0.566590  1.0  -0.3288
  N  N240  1  0.947100  0.444640  0.367780  1.0  -0.3353
  N  N241  1  0.558900  0.437990  0.817820  1.0  -0.2753
  N  N242  1  0.439700  0.502520  0.742560  1.0  -0.2655
  N  N243  1  0.388200  0.495570  0.808700  1.0  -0.3659
  N  N244  1  0.165500  0.503370  0.060100  1.0  -0.2309
  N  N245  1  0.218900  0.434860  0.151560  1.0  -0.2652
  N  N246  1  0.086800  0.510860  0.112700  1.0  -0.3564
  N  N247  1  0.520100  0.375300  0.047500  1.0  -0.3978
  N  N248  1  0.244200  0.948460  0.933410  1.0  -0.3268
  N  N249  1  0.052900  0.944640  0.132220  1.0  -0.3361
  N  N250  1  0.441100  0.937990  0.682180  1.0  -0.2757
  N  N251  1  0.560300  0.002520  0.757440  1.0  -0.2655
  N  N252  1  0.611800  0.995570  0.691300  1.0  -0.3668
  N  N253  1  0.834500  0.003370  0.439900  1.0  -0.232
  N  N254  1  0.781100  0.934860  0.348440  1.0  -0.2652
  N  N255  1  0.913200  0.010860  0.387300  1.0  -0.3567
  N  N256  1  0.479900  0.875300  0.452500  1.0  -0.3976
  O  O257  1  0.000720  0.590900  0.452460  1.0  -0.6009
  O  O258  1  0.214000  0.853080  0.060170  1.0  -0.5603
  O  O259  1  0.326400  0.928570  0.115760  1.0  -0.5569
  O  O260  1  0.837400  0.533150  0.460790  1.0  -0.6197
  O  O261  1  0.999280  0.090900  0.047540  1.0  -0.601
  O  O262  1  0.786000  0.353080  0.439830  1.0  -0.5602
  O  O263  1  0.673600  0.428570  0.384240  1.0  -0.5573
  O  O264  1  0.162600  0.033150  0.039210  1.0  -0.62
  O  O265  1  0.999280  0.409100  0.547540  1.0  -0.6015
  O  O266  1  0.786000  0.146920  0.939830  1.0  -0.5566
  O  O267  1  0.673600  0.071430  0.884240  1.0  -0.5568
  O  O268  1  0.162600  0.466850  0.539210  1.0  -0.6197
  O  O269  1  0.000720  0.909100  0.952460  1.0  -0.6012
  O  O270  1  0.214000  0.646920  0.560170  1.0  -0.5573
  O  O271  1  0.326400  0.571430  0.615760  1.0  -0.5568
  O  O272  1  0.837400  0.966850  0.960790  1.0  -0.6194
