# generated using pymatgen
data_Fe9H70C44O49
_symmetry_space_group_name_H-M   'P 1'
_cell_length_a   18.92700000
_cell_length_b   18.92700000
_cell_length_c   24.69300000
_cell_angle_alpha   90.00000000
_cell_angle_beta   90.00000000
_cell_angle_gamma   120.00000000
_symmetry_Int_Tables_number   1
_chemical_formula_structural   Fe9H70C44O49
_chemical_formula_sum   'Fe27 H210 C132 O147'
_cell_volume   7660.69289221
_cell_formula_units_Z   3
loop_
 _symmetry_equiv_pos_site_id
 _symmetry_equiv_pos_as_xyz
  1  'x, y, z'
loop_
 _atom_site_type_symbol
 _atom_site_label
 _atom_site_symmetry_multiplicity
 _atom_site_fract_x
 _atom_site_fract_y
 _atom_site_fract_z
 _atom_site_occupancy
 _atom_site_charge
  Fe  Fe1  1  0.319290  0.538470  0.708480  1.0  1.0882
  Fe  Fe2  1  0.363540  0.410980  0.647210  1.0  1.1227
  Fe  Fe3  1  0.379430  0.570170  0.581140  1.0  1.0474
  Fe  Fe4  1  0.390200  0.099620  0.661280  1.0  1.1712
  Fe  Fe5  1  0.461530  0.780820  0.375150  1.0  1.0882
  Fe  Fe6  1  0.589020  0.952560  0.313880  1.0  1.1214
  Fe  Fe7  1  0.429830  0.809260  0.247810  1.0  1.0483
  Fe  Fe8  1  0.900380  0.290580  0.327950  1.0  1.1693
  Fe  Fe9  1  0.219180  0.680710  0.041810  1.0  1.0893
  Fe  Fe10  1  0.047440  0.636460  0.980540  1.0  1.1199
  Fe  Fe11  1  0.190740  0.620570  0.914470  1.0  1.0479
  Fe  Fe12  1  0.709420  0.609800  0.994610  1.0  1.1688
  Fe  Fe13  1  0.538470  0.319290  0.291520  1.0  1.089
  Fe  Fe14  1  0.410980  0.363540  0.352790  1.0  1.1199
  Fe  Fe15  1  0.570170  0.379430  0.418860  1.0  1.048
  Fe  Fe16  1  0.099620  0.390200  0.338720  1.0  1.1703
  Fe  Fe17  1  0.780820  0.461530  0.624850  1.0  1.0877
  Fe  Fe18  1  0.952560  0.589020  0.686120  1.0  1.1228
  Fe  Fe19  1  0.809260  0.429830  0.752190  1.0  1.047
  Fe  Fe20  1  0.290580  0.900380  0.672050  1.0  1.1716
  Fe  Fe21  1  0.680710  0.219180  0.958190  1.0  1.0873
  Fe  Fe22  1  0.636460  0.047440  0.019460  1.0  1.1211
  Fe  Fe23  1  0.620570  0.190740  0.085530  1.0  1.0484
  Fe  Fe24  1  0.609800  0.709420  0.005390  1.0  1.1692
  Fe  Fe25  1  0.492400  0.000000  0.666667  1.0  0.6743
  Fe  Fe26  1  0.000000  0.492400  0.333333  1.0  0.678
  Fe  Fe27  1  0.507600  0.507600  0.000000  1.0  0.6754
  H  H28  1  0.512700  0.466400  0.796800  1.0  0.1267
  H  H29  1  0.508400  0.543200  0.815700  1.0  0.1395
  H  H30  1  0.441700  0.456000  0.834700  1.0  0.1592
  H  H31  1  0.133600  0.239100  0.719400  1.0  0.1563
  H  H32  1  0.120000  0.291700  0.762800  1.0  0.1544
  H  H33  1  0.085600  0.283900  0.704000  1.0  0.1733
  H  H34  1  0.170300  0.638600  0.642600  1.0  0.1626
  H  H35  1  0.219100  0.678500  0.589300  1.0  0.1525
  H  H36  1  0.143500  0.590000  0.588000  1.0  0.1316
  H  H37  1  0.536300  0.785800  0.719000  1.0  0.1656
  H  H38  1  0.575700  0.783800  0.663600  1.0  0.1635
  H  H39  1  0.517000  0.819800  0.666500  1.0  0.1568
  H  H40  1  0.199400  0.464000  0.876400  1.0  0.1538
  H  H41  1  0.186300  0.427600  0.817800  1.0  0.1429
  H  H42  1  0.272400  0.465700  0.845200  1.0  0.1418
  H  H43  1  0.232000  0.221800  0.648600  1.0  0.1579
  H  H44  1  0.239300  0.153000  0.618200  1.0  0.1495
  H  H45  1  0.235400  0.152800  0.681600  1.0  0.1621
  H  H46  1  0.226100  0.375200  0.466000  1.0  0.1635
  H  H47  1  0.247300  0.307400  0.481000  1.0  0.1464
  H  H48  1  0.174200  0.309100  0.509600  1.0  0.1627
  H  H49  1  0.626400  0.606100  0.553000  1.0  0.1565
  H  H50  1  0.628600  0.554500  0.601900  1.0  0.1599
  H  H51  1  0.601300  0.514400  0.544500  1.0  0.1378
  H  H52  1  0.220700  0.069100  0.791500  1.0  0.1706
  H  H53  1  0.153700  0.976900  0.785800  1.0  0.1596
  H  H54  1  0.228700  0.002400  0.824200  1.0  0.1721
  H  H55  1  0.629000  0.174400  0.535100  1.0  0.1576
  H  H56  1  0.564900  0.198800  0.516500  1.0  0.1524
  H  H57  1  0.627900  0.248800  0.562100  1.0  0.1609
  H  H58  1  0.551100  0.230000  0.796700  1.0  0.1437
  H  H59  1  0.572100  0.163900  0.816500  1.0  0.1552
  H  H60  1  0.629500  0.231000  0.775100  1.0  0.1411
  H  H61  1  0.637600  0.999700  0.672000  1.0  0.2398
  H  H62  1  0.610000  0.995000  0.619800  1.0  0.1908
  H  H63  1  0.533600  0.046300  0.463470  1.0  0.126
  H  H64  1  0.456800  0.965200  0.482370  1.0  0.1413
  H  H65  1  0.544000  0.985700  0.501370  1.0  0.1597
  H  H66  1  0.760900  0.894500  0.386070  1.0  0.1582
  H  H67  1  0.708300  0.828300  0.429470  1.0  0.1545
  H  H68  1  0.716100  0.801700  0.370670  1.0  0.171
  H  H69  1  0.361400  0.531700  0.309270  1.0  0.1627
  H  H70  1  0.321500  0.540600  0.255970  1.0  0.1503
  H  H71  1  0.410000  0.553500  0.254670  1.0  0.1334
  H  H72  1  0.214200  0.750500  0.385670  1.0  0.1657
  H  H73  1  0.216200  0.791900  0.330270  1.0  0.1637
  H  H74  1  0.180200  0.697200  0.333170  1.0  0.1598
  H  H75  1  0.536000  0.735400  0.543070  1.0  0.1525
  H  H76  1  0.572400  0.758700  0.484470  1.0  0.1437
  H  H77  1  0.534300  0.806700  0.511870  1.0  0.141
  H  H78  1  0.778200  0.010200  0.315270  1.0  0.1528
  H  H79  1  0.847000  0.086300  0.284870  1.0  0.1482
  H  H80  1  0.847200  0.082600  0.348270  1.0  0.1605
  H  H81  1  0.624800  0.850900  0.132670  1.0  0.1635
  H  H82  1  0.692600  0.939900  0.147670  1.0  0.1509
  H  H83  1  0.690900  0.865100  0.176270  1.0  0.1621
  H  H84  1  0.393900  0.020300  0.219670  1.0  0.159
  H  H85  1  0.445500  0.074100  0.268570  1.0  0.1615
  H  H86  1  0.485600  0.086900  0.211170  1.0  0.1376
  H  H87  1  0.930900  0.151600  0.458170  1.0  0.1738
  H  H88  1  0.023100  0.176800  0.452470  1.0  0.1597
  H  H89  1  0.997600  0.226300  0.490870  1.0  0.1719
  H  H90  1  0.825600  0.454600  0.201770  1.0  0.1572
  H  H91  1  0.801200  0.366100  0.183170  1.0  0.1525
  H  H92  1  0.751200  0.379100  0.228770  1.0  0.1605
  H  H93  1  0.770000  0.321100  0.463370  1.0  0.1428
  H  H94  1  0.836100  0.408200  0.483170  1.0  0.1547
  H  H95  1  0.769000  0.398500  0.441770  1.0  0.1426
  H  H96  1  0.000300  0.637900  0.338670  1.0  0.25
  H  H97  1  0.005000  0.615000  0.286470  1.0  0.1905
  H  H98  1  0.953700  0.487300  0.130130  1.0  0.1256
  H  H99  1  0.034800  0.491600  0.149030  1.0  0.1402
  H  H100  1  0.014300  0.558300  0.168030  1.0  0.1604
  H  H101  1  0.105500  0.866400  0.052730  1.0  0.1591
  H  H102  1  0.171700  0.880000  0.096130  1.0  0.1538
  H  H103  1  0.198300  0.914400  0.037330  1.0  0.1705
  H  H104  1  0.468300  0.829700  0.975930  1.0  0.1621
  H  H105  1  0.459400  0.780900  0.922630  1.0  0.1504
  H  H106  1  0.446500  0.856500  0.921330  1.0  0.1328
  H  H107  1  0.249500  0.463700  0.052330  1.0  0.1661
  H  H108  1  0.208100  0.424300  0.996930  1.0  0.1642
  H  H109  1  0.302800  0.483000  0.999830  1.0  0.1547
  H  H110  1  0.264600  0.800600  0.209730  1.0  0.1535
  H  H111  1  0.241300  0.813700  0.151130  1.0  0.1433
  H  H112  1  0.193300  0.727600  0.178530  1.0  0.1429
  H  H113  1  0.989800  0.768000  0.981930  1.0  0.1563
  H  H114  1  0.913700  0.760700  0.951530  1.0  0.1488
  H  H115  1  0.917400  0.764600  0.014930  1.0  0.162
  H  H116  1  0.149100  0.773900  0.799330  1.0  0.1636
  H  H117  1  0.060100  0.752700  0.814330  1.0  0.1476
  H  H118  1  0.134900  0.825800  0.842930  1.0  0.1615
  H  H119  1  0.979700  0.373600  0.886330  1.0  0.159
  H  H120  1  0.925900  0.371400  0.935230  1.0  0.1607
  H  H121  1  0.913100  0.398700  0.877830  1.0  0.1386
  H  H122  1  0.848400  0.779300  0.124830  1.0  0.1695
  H  H123  1  0.823200  0.846300  0.119130  1.0  0.1587
  H  H124  1  0.773700  0.771300  0.157530  1.0  0.1712
  H  H125  1  0.545400  0.371000  0.868430  1.0  0.1588
  H  H126  1  0.633900  0.435100  0.849830  1.0  0.1518
  H  H127  1  0.620900  0.372100  0.895430  1.0  0.16
  H  H128  1  0.678900  0.448900  0.130030  1.0  0.1425
  H  H129  1  0.591800  0.427900  0.149830  1.0  0.1549
  H  H130  1  0.601500  0.370500  0.108430  1.0  0.1432
  H  H131  1  0.362100  0.362400  0.005330  1.0  0.2478
  H  H132  1  0.385000  0.390000  0.953130  1.0  0.1908
  H  H133  1  0.466400  0.512700  0.203200  1.0  0.1263
  H  H134  1  0.543200  0.508400  0.184300  1.0  0.1408
  H  H135  1  0.456000  0.441700  0.165300  1.0  0.1607
  H  H136  1  0.239100  0.133600  0.280600  1.0  0.1602
  H  H137  1  0.291700  0.120000  0.237200  1.0  0.1525
  H  H138  1  0.283900  0.085600  0.296000  1.0  0.1716
  H  H139  1  0.638600  0.170300  0.357400  1.0  0.1626
  H  H140  1  0.678500  0.219100  0.410700  1.0  0.1502
  H  H141  1  0.590000  0.143500  0.412000  1.0  0.1319
  H  H142  1  0.785800  0.536300  0.281000  1.0  0.1655
  H  H143  1  0.783800  0.575700  0.336400  1.0  0.1632
  H  H144  1  0.819800  0.517000  0.333500  1.0  0.1551
  H  H145  1  0.464000  0.199400  0.123600  1.0  0.1546
  H  H146  1  0.427600  0.186300  0.182200  1.0  0.1414
  H  H147  1  0.465700  0.272400  0.154800  1.0  0.1435
  H  H148  1  0.221800  0.232000  0.351400  1.0  0.157
  H  H149  1  0.153000  0.239300  0.381800  1.0  0.1491
  H  H150  1  0.152800  0.235400  0.318400  1.0  0.1609
  H  H151  1  0.375200  0.226100  0.534000  1.0  0.1642
  H  H152  1  0.307400  0.247300  0.519000  1.0  0.1475
  H  H153  1  0.309100  0.174200  0.490400  1.0  0.1607
  H  H154  1  0.606100  0.626400  0.447000  1.0  0.1586
  H  H155  1  0.554500  0.628600  0.398100  1.0  0.1627
  H  H156  1  0.514400  0.601300  0.455500  1.0  0.1386
  H  H157  1  0.069100  0.220700  0.208500  1.0  0.1715
  H  H158  1  0.976900  0.153700  0.214200  1.0  0.1582
  H  H159  1  0.002400  0.228700  0.175800  1.0  0.1735
  H  H160  1  0.174400  0.629000  0.464900  1.0  0.1592
  H  H161  1  0.198800  0.564900  0.483500  1.0  0.1514
  H  H162  1  0.248800  0.627900  0.437900  1.0  0.1588
  H  H163  1  0.230000  0.551100  0.203300  1.0  0.1424
  H  H164  1  0.163900  0.572100  0.183500  1.0  0.1553
  H  H165  1  0.231000  0.629500  0.224900  1.0  0.1438
  H  H166  1  0.999700  0.637600  0.328000  1.0  0.2494
  H  H167  1  0.995000  0.610000  0.380200  1.0  0.1898
  H  H168  1  0.046300  0.533600  0.536530  1.0  0.1267
  H  H169  1  0.965200  0.456800  0.517630  1.0  0.1381
  H  H170  1  0.985700  0.544000  0.498630  1.0  0.1603
  H  H171  1  0.894500  0.760900  0.613930  1.0  0.1574
  H  H172  1  0.828300  0.708300  0.570530  1.0  0.1526
  H  H173  1  0.801700  0.716100  0.629330  1.0  0.1728
  H  H174  1  0.531700  0.361400  0.690730  1.0  0.1624
  H  H175  1  0.540600  0.321500  0.744030  1.0  0.1513
  H  H176  1  0.553500  0.410000  0.745330  1.0  0.1314
  H  H177  1  0.750500  0.214200  0.614330  1.0  0.1661
  H  H178  1  0.791900  0.216200  0.669730  1.0  0.1636
  H  H179  1  0.697200  0.180200  0.666830  1.0  0.157
  H  H180  1  0.735400  0.536000  0.456930  1.0  0.1536
  H  H181  1  0.758700  0.572400  0.515530  1.0  0.1412
  H  H182  1  0.806700  0.534300  0.488130  1.0  0.1416
  H  H183  1  0.010200  0.778200  0.684730  1.0  0.1572
  H  H184  1  0.086300  0.847000  0.715130  1.0  0.1492
  H  H185  1  0.082600  0.847200  0.651730  1.0  0.1612
  H  H186  1  0.850900  0.624800  0.867330  1.0  0.1644
  H  H187  1  0.939900  0.692600  0.852330  1.0  0.147
  H  H188  1  0.865100  0.690900  0.823730  1.0  0.1623
  H  H189  1  0.020300  0.393900  0.780330  1.0  0.1562
  H  H190  1  0.074100  0.445500  0.731430  1.0  0.1617
  H  H191  1  0.086900  0.485600  0.788830  1.0  0.1383
  H  H192  1  0.151600  0.930900  0.541830  1.0  0.1691
  H  H193  1  0.176800  0.023100  0.547530  1.0  0.1589
  H  H194  1  0.226300  0.997600  0.509130  1.0  0.1709
  H  H195  1  0.454600  0.825600  0.798230  1.0  0.1573
  H  H196  1  0.366100  0.801200  0.816830  1.0  0.1517
  H  H197  1  0.379100  0.751200  0.771230  1.0  0.1601
  H  H198  1  0.321100  0.770000  0.536630  1.0  0.1444
  H  H199  1  0.408200  0.836100  0.516830  1.0  0.1551
  H  H200  1  0.398500  0.769000  0.558230  1.0  0.1425
  H  H201  1  0.637900  0.000300  0.661330  1.0  0.2403
  H  H202  1  0.615000  0.005000  0.713530  1.0  0.1908
  H  H203  1  0.487300  0.953700  0.869870  1.0  0.1246
  H  H204  1  0.491600  0.034800  0.850970  1.0  0.1426
  H  H205  1  0.558300  0.014300  0.831970  1.0  0.1602
  H  H206  1  0.866400  0.105500  0.947270  1.0  0.1579
  H  H207  1  0.880000  0.171700  0.903870  1.0  0.1542
  H  H208  1  0.914400  0.198300  0.962670  1.0  0.1705
  H  H209  1  0.829700  0.468300  0.024070  1.0  0.163
  H  H210  1  0.780900  0.459400  0.077370  1.0  0.1501
  H  H211  1  0.856500  0.446500  0.078670  1.0  0.1327
  H  H212  1  0.463700  0.249500  0.947670  1.0  0.1656
  H  H213  1  0.424300  0.208100  0.003070  1.0  0.1628
  H  H214  1  0.483000  0.302800  0.000170  1.0  0.1565
  H  H215  1  0.800600  0.264600  0.790270  1.0  0.154
  H  H216  1  0.813700  0.241300  0.848870  1.0  0.1426
  H  H217  1  0.727600  0.193300  0.821470  1.0  0.1429
  H  H218  1  0.768000  0.989800  0.018070  1.0  0.1533
  H  H219  1  0.760700  0.913700  0.048470  1.0  0.1483
  H  H220  1  0.764600  0.917400  0.985070  1.0  0.1604
  H  H221  1  0.773900  0.149100  0.200670  1.0  0.1636
  H  H222  1  0.752700  0.060100  0.185670  1.0  0.1507
  H  H223  1  0.825800  0.134900  0.157070  1.0  0.162
  H  H224  1  0.373600  0.979700  0.113670  1.0  0.158
  H  H225  1  0.371400  0.925900  0.064770  1.0  0.1627
  H  H226  1  0.398700  0.913100  0.122170  1.0  0.1384
  H  H227  1  0.779300  0.848400  0.875170  1.0  0.174
  H  H228  1  0.846300  0.823200  0.880870  1.0  0.162
  H  H229  1  0.771300  0.773700  0.842470  1.0  0.1716
  H  H230  1  0.371000  0.545400  0.131570  1.0  0.1534
  H  H231  1  0.435100  0.633900  0.150170  1.0  0.1517
  H  H232  1  0.372100  0.620900  0.104570  1.0  0.1603
  H  H233  1  0.448900  0.678900  0.869970  1.0  0.1435
  H  H234  1  0.427900  0.591800  0.850170  1.0  0.1551
  H  H235  1  0.370500  0.601500  0.891570  1.0  0.1425
  H  H236  1  0.362400  0.362100  0.994670  1.0  0.2476
  H  H237  1  0.390000  0.385000  0.046870  1.0  0.1915
  C  C238  1  0.426400  0.479300  0.757000  1.0  0.7553
  C  C239  1  0.207400  0.360300  0.708300  1.0  0.7736
  C  C240  1  0.244200  0.593700  0.620700  1.0  0.7724
  C  C241  1  0.457000  0.696700  0.669200  1.0  0.7641
  C  C242  1  0.246300  0.551300  0.818300  1.0  0.7407
  C  C243  1  0.476800  0.486900  0.805300  1.0  -0.3831
  C  C244  1  0.129800  0.287300  0.725100  1.0  -0.4663
  C  C245  1  0.189300  0.628400  0.609100  1.0  -0.4092
  C  C246  1  0.527700  0.778800  0.680600  1.0  -0.4553
  C  C247  1  0.224100  0.469900  0.841500  1.0  -0.37
  C  C248  1  0.349300  0.239300  0.652500  1.0  0.7584
  C  C249  1  0.284800  0.396200  0.538700  1.0  0.7754
  C  C250  1  0.513700  0.527800  0.582500  1.0  0.7565
  C  C251  1  0.255000  0.186700  0.650000  1.0  -0.4066
  C  C252  1  0.227900  0.342000  0.494800  1.0  -0.4066
  C  C253  1  0.600300  0.553000  0.569300  1.0  -0.4527
  C  C254  1  0.257500  0.005200  0.744600  1.0  0.7936
  C  C255  1  0.536100  0.139700  0.588900  1.0  0.7756
  C  C256  1  0.525200  0.142100  0.740100  1.0  0.7533
  C  C257  1  0.210900  0.014200  0.790700  1.0  -0.423
  C  C258  1  0.594800  0.195500  0.546800  1.0  -0.4147
  C  C259  1  0.573900  0.196700  0.786300  1.0  -0.4022
  C  C260  1  0.520700  0.947100  0.423670  1.0  0.7545
  C  C261  1  0.639700  0.847100  0.374970  1.0  0.7761
  C  C262  1  0.406300  0.650500  0.287370  1.0  0.774
  C  C263  1  0.303300  0.760300  0.335870  1.0  0.7652
  C  C264  1  0.448700  0.695000  0.484970  1.0  0.738
  C  C265  1  0.513100  0.989900  0.471970  1.0  -0.3819
  C  C266  1  0.712700  0.842500  0.391770  1.0  -0.467
  C  C267  1  0.371600  0.560900  0.275770  1.0  -0.4132
  C  C268  1  0.221200  0.748900  0.347270  1.0  -0.4489
  C  C269  1  0.530100  0.754200  0.508170  1.0  -0.3686
  C  C270  1  0.760700  0.110000  0.319170  1.0  0.7578
  C  C271  1  0.603800  0.888600  0.205370  1.0  0.7745
  C  C272  1  0.472200  0.985900  0.249170  1.0  0.7563
  C  C273  1  0.813300  0.068300  0.316670  1.0  -0.4072
  C  C274  1  0.658000  0.885900  0.161470  1.0  -0.4077
  C  C275  1  0.447000  0.047300  0.235970  1.0  -0.4513
  C  C276  1  0.994800  0.252300  0.411270  1.0  0.7942
  C  C277  1  0.860300  0.396400  0.255570  1.0  0.7774
  C  C278  1  0.857900  0.383100  0.406770  1.0  0.7532
  C  C279  1  0.985800  0.196700  0.457370  1.0  -0.4242
  C  C280  1  0.804500  0.399300  0.213470  1.0  -0.4142
  C  C281  1  0.803300  0.377200  0.452970  1.0  -0.4022
  C  C282  1  0.052900  0.573600  0.090330  1.0  0.7545
  C  C283  1  0.152900  0.792600  0.041630  1.0  0.7738
  C  C284  1  0.349500  0.755800  0.954030  1.0  0.7741
  C  C285  1  0.239700  0.543000  0.002530  1.0  0.7634
  C  C286  1  0.305000  0.753700  0.151630  1.0  0.7378
  C  C287  1  0.010100  0.523200  0.138630  1.0  -0.3814
  C  C288  1  0.157500  0.870200  0.058430  1.0  -0.4658
  C  C289  1  0.439100  0.810700  0.942430  1.0  -0.411
  C  C290  1  0.251100  0.472300  0.013930  1.0  -0.4511
  C  C291  1  0.245800  0.775900  0.174830  1.0  -0.3685
  C  C292  1  0.890000  0.650700  0.985830  1.0  0.7584
  C  C293  1  0.111400  0.715200  0.872030  1.0  0.7734
  C  C294  1  0.014100  0.486300  0.915830  1.0  0.7575
  C  C295  1  0.931700  0.745000  0.983330  1.0  -0.4101
  C  C296  1  0.114100  0.772100  0.828130  1.0  -0.4091
  C  C297  1  0.952700  0.399700  0.902630  1.0  -0.4554
  C  C298  1  0.747700  0.742500  0.077930  1.0  0.7932
  C  C299  1  0.603600  0.463900  0.922230  1.0  0.7765
  C  C300  1  0.616900  0.474800  0.073430  1.0  0.7528
  C  C301  1  0.803300  0.789100  0.124030  1.0  -0.4236
  C  C302  1  0.600700  0.405200  0.880130  1.0  -0.4146
  C  C303  1  0.622800  0.426100  0.119630  1.0  -0.4014
  C  C304  1  0.479300  0.426400  0.243000  1.0  0.7538
  C  C305  1  0.360300  0.207400  0.291700  1.0  0.7732
  C  C306  1  0.593700  0.244200  0.379300  1.0  0.7745
  C  C307  1  0.696700  0.457000  0.330800  1.0  0.7626
  C  C308  1  0.551300  0.246300  0.181700  1.0  0.7386
  C  C309  1  0.486900  0.476800  0.194700  1.0  -0.3806
  C  C310  1  0.287300  0.129800  0.274900  1.0  -0.466
  C  C311  1  0.628400  0.189300  0.390900  1.0  -0.4111
  C  C312  1  0.778800  0.527700  0.319400  1.0  -0.4502
  C  C313  1  0.469900  0.224100  0.158500  1.0  -0.3689
  C  C314  1  0.239300  0.349300  0.347500  1.0  0.7578
  C  C315  1  0.396200  0.284800  0.461300  1.0  0.7734
  C  C316  1  0.527800  0.513700  0.417500  1.0  0.7543
  C  C317  1  0.186700  0.255000  0.350000  1.0  -0.4101
  C  C318  1  0.342000  0.227900  0.505200  1.0  -0.4083
  C  C319  1  0.553000  0.600300  0.430700  1.0  -0.4535
  C  C320  1  0.005200  0.257500  0.255400  1.0  0.7942
  C  C321  1  0.139700  0.536100  0.411100  1.0  0.7761
  C  C322  1  0.142100  0.525200  0.259900  1.0  0.7536
  C  C323  1  0.014200  0.210900  0.209300  1.0  -0.4252
  C  C324  1  0.195500  0.594800  0.453200  1.0  -0.4141
  C  C325  1  0.196700  0.573900  0.213700  1.0  -0.4017
  C  C326  1  0.947100  0.520700  0.576330  1.0  0.7549
  C  C327  1  0.847100  0.639700  0.625030  1.0  0.773
  C  C328  1  0.650500  0.406300  0.712630  1.0  0.774
  C  C329  1  0.760300  0.303300  0.664130  1.0  0.7641
  C  C330  1  0.695000  0.448700  0.515030  1.0  0.7379
  C  C331  1  0.989900  0.513100  0.528030  1.0  -0.3819
  C  C332  1  0.842500  0.712700  0.608230  1.0  -0.4658
  C  C333  1  0.560900  0.371600  0.724230  1.0  -0.4093
  C  C334  1  0.748900  0.221200  0.652730  1.0  -0.4567
  C  C335  1  0.754200  0.530100  0.491830  1.0  -0.371
  C  C336  1  0.110000  0.760700  0.680830  1.0  0.7587
  C  C337  1  0.888600  0.603800  0.794630  1.0  0.7745
  C  C338  1  0.985900  0.472200  0.750830  1.0  0.7562
  C  C339  1  0.068300  0.813300  0.683330  1.0  -0.4067
  C  C340  1  0.885900  0.658000  0.838530  1.0  -0.4071
  C  C341  1  0.047300  0.447000  0.764030  1.0  -0.452
  C  C342  1  0.252300  0.994800  0.588730  1.0  0.7946
  C  C343  1  0.396400  0.860300  0.744430  1.0  0.7764
  C  C344  1  0.383100  0.857900  0.593230  1.0  0.7544
  C  C345  1  0.196700  0.985800  0.542630  1.0  -0.4224
  C  C346  1  0.399300  0.804500  0.786530  1.0  -0.4139
  C  C347  1  0.377200  0.803300  0.547030  1.0  -0.4021
  C  C348  1  0.573600  0.052900  0.909670  1.0  0.754
  C  C349  1  0.792600  0.152900  0.958370  1.0  0.7759
  C  C350  1  0.755800  0.349500  0.045970  1.0  0.774
  C  C351  1  0.543000  0.239700  0.997470  1.0  0.7639
  C  C352  1  0.753700  0.305000  0.848370  1.0  0.7377
  C  C353  1  0.523200  0.010100  0.861370  1.0  -0.3799
  C  C354  1  0.870200  0.157500  0.941570  1.0  -0.4669
  C  C355  1  0.810700  0.439100  0.057570  1.0  -0.4118
  C  C356  1  0.472300  0.251100  0.986070  1.0  -0.4487
  C  C357  1  0.775900  0.245800  0.825170  1.0  -0.3692
  C  C358  1  0.650700  0.890000  0.014170  1.0  0.7589
  C  C359  1  0.715200  0.111400  0.127970  1.0  0.7732
  C  C360  1  0.486300  0.014100  0.084170  1.0  0.7553
  C  C361  1  0.745000  0.931700  0.016670  1.0  -0.4072
  C  C362  1  0.772100  0.114100  0.171870  1.0  -0.4078
  C  C363  1  0.399700  0.952700  0.097370  1.0  -0.4512
  C  C364  1  0.742500  0.747700  0.922070  1.0  0.7929
  C  C365  1  0.463900  0.603600  0.077770  1.0  0.7787
  C  C366  1  0.474800  0.616900  0.926570  1.0  0.753
  C  C367  1  0.789100  0.803300  0.875970  1.0  -0.4259
  C  C368  1  0.405200  0.600700  0.119870  1.0  -0.4136
  C  C369  1  0.426100  0.622800  0.880370  1.0  -0.4028
  O  O370  1  0.354300  0.506400  0.645010  1.0  -0.8225
  O  O371  1  0.376400  0.503800  0.762100  1.0  -0.5741
  O  O372  1  0.214500  0.428800  0.712600  1.0  -0.5587
  O  O373  1  0.256400  0.585800  0.670020  1.0  -0.5723
  O  O374  1  0.420100  0.651500  0.709700  1.0  -0.5783
  O  O375  1  0.279600  0.573800  0.772700  1.0  -0.6034
  O  O376  1  0.380000  0.314100  0.645600  1.0  -0.6053
  O  O377  1  0.435100  0.446700  0.714400  1.0  -0.5692
  O  O378  1  0.262900  0.346400  0.692500  1.0  -0.5852
  O  O379  1  0.294600  0.363300  0.579500  1.0  -0.5677
  O  O380  1  0.470100  0.458900  0.604400  1.0  -0.5843
  O  O381  1  0.275100  0.576400  0.581110  1.0  -0.5821
  O  O382  1  0.437000  0.677000  0.620800  1.0  -0.5663
  O  O383  1  0.321100  0.472800  0.530800  1.0  -0.5855
  O  O384  1  0.489400  0.577800  0.571100  1.0  -0.5702
  O  O385  1  0.228400  0.598200  0.843900  1.0  -0.6214
  O  O386  1  0.392200  0.207300  0.654500  1.0  -0.5885
  O  O387  1  0.296800  0.066500  0.713800  1.0  -0.5856
  O  O388  1  0.486800  0.158600  0.608500  1.0  -0.5795
  O  O389  1  0.467400  0.151600  0.724100  1.0  -0.5658
  O  O390  1  0.251900  0.936500  0.737300  1.0  -0.5597
  O  O391  1  0.541000  0.078000  0.603600  1.0  -0.5812
  O  O392  1  0.545100  0.093600  0.720400  1.0  -0.5764
  O  O393  1  0.599300  0.997900  0.652900  1.0  -0.11
  O  O394  1  0.493600  0.847900  0.311680  1.0  -0.8223
  O  O395  1  0.496200  0.872600  0.428770  1.0  -0.5742
  O  O396  1  0.571200  0.785700  0.379270  1.0  -0.5599
  O  O397  1  0.414200  0.670600  0.336690  1.0  -0.5709
  O  O398  1  0.348500  0.768600  0.376370  1.0  -0.578
  O  O399  1  0.426200  0.705800  0.439370  1.0  -0.6009
  O  O400  1  0.685900  0.065900  0.312270  1.0  -0.6065
  O  O401  1  0.553300  0.988400  0.381070  1.0  -0.5689
  O  O402  1  0.653600  0.916500  0.359170  1.0  -0.5869
  O  O403  1  0.636700  0.931300  0.246170  1.0  -0.5668
  O  O404  1  0.541100  0.011200  0.271070  1.0  -0.5835
  O  O405  1  0.423600  0.698700  0.247780  1.0  -0.5817
  O  O406  1  0.323000  0.760000  0.287470  1.0  -0.5671
  O  O407  1  0.527200  0.848300  0.197470  1.0  -0.582
  O  O408  1  0.422200  0.911600  0.237770  1.0  -0.5721
  O  O409  1  0.401800  0.630200  0.510570  1.0  -0.6198
  O  O410  1  0.792700  0.184900  0.321170  1.0  -0.5906
  O  O411  1  0.933500  0.230300  0.380470  1.0  -0.5859
  O  O412  1  0.841400  0.328200  0.275170  1.0  -0.5831
  O  O413  1  0.848400  0.315800  0.390770  1.0  -0.5663
  O  O414  1  0.063500  0.315400  0.403970  1.0  -0.5611
  O  O415  1  0.922000  0.463000  0.270270  1.0  -0.5824
  O  O416  1  0.906400  0.451500  0.387070  1.0  -0.576
  O  O417  1  0.002100  0.601400  0.319570  1.0  -0.1073
  O  O418  1  0.152100  0.645700  0.978340  1.0  -0.8224
  O  O419  1  0.127400  0.623600  0.095430  1.0  -0.5739
  O  O420  1  0.214300  0.785500  0.045930  1.0  -0.5588
  O  O421  1  0.329400  0.743600  0.003350  1.0  -0.5715
  O  O422  1  0.231400  0.579900  0.043030  1.0  -0.5781
  O  O423  1  0.294200  0.720400  0.106030  1.0  -0.6004
  O  O424  1  0.934100  0.620000  0.978930  1.0  -0.6062
  O  O425  1  0.011600  0.564900  0.047730  1.0  -0.5693
  O  O426  1  0.083500  0.737100  0.025830  1.0  -0.5842
  O  O427  1  0.068700  0.705400  0.912830  1.0  -0.5663
  O  O428  1  0.988800  0.529900  0.937730  1.0  -0.5818
  O  O429  1  0.301300  0.724900  0.914440  1.0  -0.5803
  O  O430  1  0.240000  0.563000  0.954130  1.0  -0.5655
  O  O431  1  0.151700  0.678900  0.864130  1.0  -0.5814
  O  O432  1  0.088400  0.510600  0.904430  1.0  -0.5706
  O  O433  1  0.369800  0.771600  0.177230  1.0  -0.6153
  O  O434  1  0.815100  0.607800  0.987830  1.0  -0.5906
  O  O435  1  0.769700  0.703200  0.047130  1.0  -0.5851
  O  O436  1  0.671800  0.513200  0.941830  1.0  -0.5793
  O  O437  1  0.684200  0.532600  0.057430  1.0  -0.5662
  O  O438  1  0.684600  0.748100  0.070630  1.0  -0.5589
  O  O439  1  0.537000  0.459000  0.936930  1.0  -0.5807
  O  O440  1  0.548500  0.454900  0.053730  1.0  -0.5766
  O  O441  1  0.398600  0.400700  0.986230  1.0  -0.1063
  O  O442  1  0.506400  0.354300  0.354990  1.0  -0.8219
  O  O443  1  0.503800  0.376400  0.237900  1.0  -0.5742
  O  O444  1  0.428800  0.214500  0.287400  1.0  -0.5585
  O  O445  1  0.585800  0.256400  0.329980  1.0  -0.5724
  O  O446  1  0.651500  0.420100  0.290300  1.0  -0.5773
  O  O447  1  0.573800  0.279600  0.227300  1.0  -0.6018
  O  O448  1  0.314100  0.380000  0.354400  1.0  -0.6067
  O  O449  1  0.446700  0.435100  0.285600  1.0  -0.5681
  O  O450  1  0.346400  0.262900  0.307500  1.0  -0.5847
  O  O451  1  0.363300  0.294600  0.420500  1.0  -0.5663
  O  O452  1  0.458900  0.470100  0.395600  1.0  -0.5824
  O  O453  1  0.576400  0.275100  0.418890  1.0  -0.58
  O  O454  1  0.677000  0.437000  0.379200  1.0  -0.5652
  O  O455  1  0.472800  0.321100  0.469200  1.0  -0.5817
  O  O456  1  0.577800  0.489400  0.428900  1.0  -0.5705
  O  O457  1  0.598200  0.228400  0.156100  1.0  -0.6152
  O  O458  1  0.207300  0.392200  0.345500  1.0  -0.5915
  O  O459  1  0.066500  0.296800  0.286200  1.0  -0.5853
  O  O460  1  0.158600  0.486800  0.391500  1.0  -0.579
  O  O461  1  0.151600  0.467400  0.275900  1.0  -0.566
  O  O462  1  0.936500  0.251900  0.262700  1.0  -0.5577
  O  O463  1  0.078000  0.541000  0.396400  1.0  -0.5808
  O  O464  1  0.093600  0.545100  0.279600  1.0  -0.577
  O  O465  1  0.997900  0.599300  0.347100  1.0  -0.1147
  O  O466  1  0.847900  0.493600  0.688320  1.0  -0.8218
  O  O467  1  0.872600  0.496200  0.571230  1.0  -0.5737
  O  O468  1  0.785700  0.571200  0.620730  1.0  -0.5586
  O  O469  1  0.670600  0.414200  0.663310  1.0  -0.5732
  O  O470  1  0.768600  0.348500  0.623630  1.0  -0.5775
  O  O471  1  0.705800  0.426200  0.560630  1.0  -0.6039
  O  O472  1  0.065900  0.685900  0.687730  1.0  -0.6052
  O  O473  1  0.988400  0.553300  0.618930  1.0  -0.5685
  O  O474  1  0.916500  0.653600  0.640830  1.0  -0.5857
  O  O475  1  0.931300  0.636700  0.753830  1.0  -0.568
  O  O476  1  0.011200  0.541100  0.728930  1.0  -0.5841
  O  O477  1  0.698700  0.423600  0.752220  1.0  -0.5817
  O  O478  1  0.760000  0.323000  0.712530  1.0  -0.5662
  O  O479  1  0.848300  0.527200  0.802530  1.0  -0.5854
  O  O480  1  0.911600  0.422200  0.762230  1.0  -0.571
  O  O481  1  0.630200  0.401800  0.489430  1.0  -0.6205
  O  O482  1  0.184900  0.792700  0.678830  1.0  -0.5881
  O  O483  1  0.230300  0.933500  0.619530  1.0  -0.5854
  O  O484  1  0.328200  0.841400  0.724830  1.0  -0.5803
  O  O485  1  0.315800  0.848400  0.609230  1.0  -0.5661
  O  O486  1  0.315400  0.063500  0.596030  1.0  -0.5605
  O  O487  1  0.463000  0.922000  0.729730  1.0  -0.5824
  O  O488  1  0.451500  0.906400  0.612930  1.0  -0.5769
  O  O489  1  0.601400  0.002100  0.680430  1.0  -0.1172
  O  O490  1  0.645700  0.152100  0.021660  1.0  -0.8223
  O  O491  1  0.623600  0.127400  0.904570  1.0  -0.573
  O  O492  1  0.785500  0.214300  0.954070  1.0  -0.5608
  O  O493  1  0.743600  0.329400  0.996650  1.0  -0.572
  O  O494  1  0.579900  0.231400  0.956970  1.0  -0.5776
  O  O495  1  0.720400  0.294200  0.893970  1.0  -0.6041
  O  O496  1  0.620000  0.934100  0.021070  1.0  -0.607
  O  O497  1  0.564900  0.011600  0.952270  1.0  -0.5687
  O  O498  1  0.737100  0.083500  0.974170  1.0  -0.5866
  O  O499  1  0.705400  0.068700  0.087170  1.0  -0.5672
  O  O500  1  0.529900  0.988800  0.062270  1.0  -0.5842
  O  O501  1  0.724900  0.301300  0.085560  1.0  -0.5809
  O  O502  1  0.563000  0.240000  0.045870  1.0  -0.567
  O  O503  1  0.678900  0.151700  0.135870  1.0  -0.5832
  O  O504  1  0.510600  0.088400  0.095570  1.0  -0.5726
  O  O505  1  0.771600  0.369800  0.822770  1.0  -0.6212
  O  O506  1  0.607800  0.815100  0.012170  1.0  -0.5898
  O  O507  1  0.703200  0.769700  0.952870  1.0  -0.5852
  O  O508  1  0.513200  0.671800  0.058170  1.0  -0.5794
  O  O509  1  0.532600  0.684200  0.942570  1.0  -0.5668
  O  O510  1  0.748100  0.684600  0.929370  1.0  -0.56
  O  O511  1  0.459000  0.537000  0.063070  1.0  -0.5822
  O  O512  1  0.454900  0.548500  0.946270  1.0  -0.5759
  O  O513  1  0.400700  0.398600  0.013770  1.0  -0.1107
  O  O514  1  0.391500  0.000000  0.666667  1.0  -0.8627
  O  O515  1  0.000000  0.391500  0.333333  1.0  -0.8637
  O  O516  1  0.608500  0.608500  0.000000  1.0  -0.8636
