# generated using pymatgen
data_Na3La2TbC28(S2O13)2
_symmetry_space_group_name_H-M   'P 1'
_cell_length_a   16.31900000
_cell_length_b   18.37400000
_cell_length_c   22.07500000
_cell_angle_alpha   90.00000000
_cell_angle_beta   106.13000000
_cell_angle_gamma   90.00000000
_symmetry_Int_Tables_number   1
_chemical_formula_structural   Na3La2TbC28(S2O13)2
_chemical_formula_sum   'Na12 La8 Tb4 C112 S16 O104'
_cell_volume   6358.51703891
_cell_formula_units_Z   4
loop_
 _symmetry_equiv_pos_site_id
 _symmetry_equiv_pos_as_xyz
  1  'x, y, z'
loop_
 _atom_site_type_symbol
 _atom_site_label
 _atom_site_symmetry_multiplicity
 _atom_site_fract_x
 _atom_site_fract_y
 _atom_site_fract_z
 _atom_site_occupancy
 _atom_site_charge
  Na  Na1  1  0.230400  0.217900  0.072000  1.0  0.9315
  Na  Na2  1  0.730400  0.717900  0.072000  1.0  0.9316
  Na  Na3  1  0.769600  0.217900  0.428000  1.0  0.9302
  Na  Na4  1  0.269600  0.717900  0.428000  1.0  0.93
  Na  Na5  1  0.769600  0.782100  0.928000  1.0  0.9321
  Na  Na6  1  0.269600  0.282100  0.928000  1.0  0.9324
  Na  Na7  1  0.230400  0.782100  0.572000  1.0  0.9334
  Na  Na8  1  0.730400  0.282100  0.572000  1.0  0.9337
  Na  Na9  1  0.500000  0.000000  0.000000  1.0  0.9482
  Na  Na10  1  0.000000  0.500000  0.000000  1.0  0.9482
  Na  Na11  1  0.500000  0.000000  0.500000  1.0  0.9482
  Na  Na12  1  0.000000  0.500000  0.500000  1.0  0.9482
  La  La13  1  0.240500  0.075800  0.209500  1.0  2.0977
  La  La14  1  0.740500  0.575800  0.209500  1.0  2.0977
  La  La15  1  0.759500  0.075800  0.290500  1.0  2.0975
  La  La16  1  0.259500  0.575800  0.290500  1.0  2.0975
  La  La17  1  0.759500  0.924200  0.790500  1.0  2.0976
  La  La18  1  0.259500  0.424200  0.790500  1.0  2.0976
  La  La19  1  0.240500  0.924200  0.709500  1.0  2.0977
  La  La20  1  0.740500  0.424200  0.709500  1.0  2.0977
  Tb  Tb21  1  0.000000  0.076900  0.250000  1.0  2.2323
  Tb  Tb22  1  0.500000  0.576900  0.250000  1.0  2.2323
  Tb  Tb23  1  0.000000  0.923100  0.750000  1.0  2.2328
  Tb  Tb24  1  0.500000  0.423100  0.750000  1.0  2.2328
  C  C25  1  0.906600  0.189800  0.987500  1.0  -0.0088
  C  C26  1  0.833900  0.186600  0.006600  1.0  0.1503
  C  C27  1  0.836500  0.173500  0.068000  1.0  0.0585
  C  C28  1  0.915600  0.163900  0.114400  1.0  0.3162
  C  C29  1  0.989500  0.165900  0.094700  1.0  -0.1442
  C  C30  1  0.983400  0.180200  0.030500  1.0  0.0973
  C  C31  1  0.075900  0.151100  0.136700  1.0  0.6582
  C  C32  1  0.774500  0.973900  0.007300  1.0  0.0148
  C  C33  1  0.858300  0.967500  0.003700  1.0  0.0717
  C  C34  1  0.924000  0.974400  0.056100  1.0  0.0575
  C  C35  1  0.911700  0.987700  0.116600  1.0  0.3109
  C  C36  1  0.827800  0.991500  0.119800  1.0  -0.1379
  C  C37  1  0.760200  0.984300  0.065500  1.0  0.0991
  C  C38  1  0.805400  0.007100  0.179300  1.0  0.6411
  C  C39  1  0.406600  0.689800  0.987500  1.0  -0.0088
  C  C40  1  0.333900  0.686600  0.006600  1.0  0.1503
  C  C41  1  0.336500  0.673500  0.068000  1.0  0.0585
  C  C42  1  0.415600  0.663900  0.114400  1.0  0.3162
  C  C43  1  0.489500  0.665900  0.094700  1.0  -0.1442
  C  C44  1  0.483400  0.680200  0.030500  1.0  0.0973
  C  C45  1  0.575900  0.651100  0.136700  1.0  0.6582
  C  C46  1  0.274500  0.473900  0.007300  1.0  0.0148
  C  C47  1  0.358300  0.467500  0.003700  1.0  0.0713
  C  C48  1  0.424000  0.474400  0.056100  1.0  0.0575
  C  C49  1  0.411700  0.487700  0.116600  1.0  0.3109
  C  C50  1  0.327800  0.491500  0.119800  1.0  -0.1379
  C  C51  1  0.260200  0.484300  0.065500  1.0  0.0991
  C  C52  1  0.305400  0.507100  0.179300  1.0  0.6411
  C  C53  1  0.093400  0.189800  0.512500  1.0  -0.0089
  C  C54  1  0.166100  0.186600  0.493400  1.0  0.1478
  C  C55  1  0.163500  0.173500  0.432000  1.0  0.0571
  C  C56  1  0.084400  0.163900  0.385600  1.0  0.3187
  C  C57  1  0.010500  0.165900  0.405300  1.0  -0.1442
  C  C58  1  0.016600  0.180200  0.469500  1.0  0.0998
  C  C59  1  0.924100  0.151100  0.363300  1.0  0.6549
  C  C60  1  0.225500  0.973900  0.492700  1.0  0.0166
  C  C61  1  0.141700  0.967500  0.496300  1.0  0.0694
  C  C62  1  0.076000  0.974400  0.443900  1.0  0.0545
  C  C63  1  0.088300  0.987700  0.383400  1.0  0.3118
  C  C64  1  0.172200  0.991500  0.380200  1.0  -0.1382
  C  C65  1  0.239800  0.984300  0.434500  1.0  0.0968
  C  C66  1  0.194600  0.007100  0.320700  1.0  0.6408
  C  C67  1  0.593400  0.689800  0.512500  1.0  -0.0089
  C  C68  1  0.666100  0.686600  0.493400  1.0  0.1478
  C  C69  1  0.663500  0.673500  0.432000  1.0  0.0571
  C  C70  1  0.584400  0.663900  0.385600  1.0  0.3187
  C  C71  1  0.510500  0.665900  0.405300  1.0  -0.1442
  C  C72  1  0.516600  0.680200  0.469500  1.0  0.0998
  C  C73  1  0.424100  0.651100  0.363300  1.0  0.6549
  C  C74  1  0.725500  0.473900  0.492700  1.0  0.0166
  C  C75  1  0.641700  0.467500  0.496300  1.0  0.0692
  C  C76  1  0.576000  0.474400  0.443900  1.0  0.0545
  C  C77  1  0.588300  0.487700  0.383400  1.0  0.3118
  C  C78  1  0.672200  0.491500  0.380200  1.0  -0.1382
  C  C79  1  0.739800  0.484300  0.434500  1.0  0.0968
  C  C80  1  0.694600  0.507100  0.320700  1.0  0.6408
  C  C81  1  0.093400  0.810200  0.012500  1.0  -0.0094
  C  C82  1  0.166100  0.813400  0.993400  1.0  0.1482
  C  C83  1  0.163500  0.826500  0.932000  1.0  0.0568
  C  C84  1  0.084400  0.836100  0.885600  1.0  0.3189
  C  C85  1  0.010500  0.834100  0.905300  1.0  -0.1447
  C  C86  1  0.016600  0.819800  0.969500  1.0  0.0997
  C  C87  1  0.924100  0.848900  0.863300  1.0  0.6548
  C  C88  1  0.225500  0.026100  0.992700  1.0  0.0172
  C  C89  1  0.141700  0.032500  0.996300  1.0  0.0693
  C  C90  1  0.076000  0.025600  0.943900  1.0  0.0544
  C  C91  1  0.088300  0.012300  0.883400  1.0  0.312
  C  C92  1  0.172200  0.008500  0.880200  1.0  -0.1383
  C  C93  1  0.239800  0.015700  0.934500  1.0  0.0966
  C  C94  1  0.194600  0.992900  0.820700  1.0  0.6414
  C  C95  1  0.593400  0.310200  0.012500  1.0  -0.0094
  C  C96  1  0.666100  0.313400  0.993400  1.0  0.1482
  C  C97  1  0.663500  0.326500  0.932000  1.0  0.0568
  C  C98  1  0.584400  0.336100  0.885600  1.0  0.3189
  C  C99  1  0.510500  0.334100  0.905300  1.0  -0.1447
  C  C100  1  0.516600  0.319800  0.969500  1.0  0.0997
  C  C101  1  0.424100  0.348900  0.863300  1.0  0.6548
  C  C102  1  0.725500  0.526100  0.992700  1.0  0.0172
  C  C103  1  0.641700  0.532500  0.996300  1.0  0.0692
  C  C104  1  0.576000  0.525600  0.943900  1.0  0.0544
  C  C105  1  0.588300  0.512300  0.883400  1.0  0.312
  C  C106  1  0.672200  0.508500  0.880200  1.0  -0.1383
  C  C107  1  0.739800  0.515700  0.934500  1.0  0.0966
  C  C108  1  0.694600  0.492900  0.820700  1.0  0.6414
  C  C109  1  0.906600  0.810200  0.487500  1.0  -0.0089
  C  C110  1  0.833900  0.813400  0.506600  1.0  0.1503
  C  C111  1  0.836500  0.826500  0.568000  1.0  0.0578
  C  C112  1  0.915600  0.836100  0.614400  1.0  0.3173
  C  C113  1  0.989500  0.834100  0.594700  1.0  -0.1447
  C  C114  1  0.983400  0.819800  0.530500  1.0  0.098
  C  C115  1  0.075900  0.848900  0.636700  1.0  0.6577
  C  C116  1  0.774500  0.026100  0.507300  1.0  0.0154
  C  C117  1  0.858300  0.032500  0.503700  1.0  0.0718
  C  C118  1  0.924000  0.025600  0.556100  1.0  0.0574
  C  C119  1  0.911700  0.012300  0.616600  1.0  0.3107
  C  C120  1  0.827800  0.008500  0.619800  1.0  -0.1372
  C  C121  1  0.760200  0.015700  0.565500  1.0  0.0991
  C  C122  1  0.805400  0.992900  0.679300  1.0  0.6408
  C  C123  1  0.406600  0.310200  0.487500  1.0  -0.0089
  C  C124  1  0.333900  0.313400  0.506600  1.0  0.1503
  C  C125  1  0.336500  0.326500  0.568000  1.0  0.0578
  C  C126  1  0.415600  0.336100  0.614400  1.0  0.3173
  C  C127  1  0.489500  0.334100  0.594700  1.0  -0.1447
  C  C128  1  0.483400  0.319800  0.530500  1.0  0.098
  C  C129  1  0.575900  0.348900  0.636700  1.0  0.6577
  C  C130  1  0.274500  0.526100  0.507300  1.0  0.0154
  C  C131  1  0.358300  0.532500  0.503700  1.0  0.0715
  C  C132  1  0.424000  0.525600  0.556100  1.0  0.0574
  C  C133  1  0.411700  0.512300  0.616600  1.0  0.3107
  C  C134  1  0.327800  0.508500  0.619800  1.0  -0.1372
  C  C135  1  0.260200  0.515700  0.565500  1.0  0.0991
  C  C136  1  0.305400  0.492900  0.679300  1.0  0.6408
  S  S137  1  0.899900  0.211400  0.908400  1.0  0.2808
  S  S138  1  0.686800  0.968000  0.940400  1.0  0.9723
  S  S139  1  0.399900  0.711400  0.908400  1.0  0.2808
  S  S140  1  0.186800  0.468000  0.940400  1.0  0.9723
  S  S141  1  0.100100  0.211400  0.591600  1.0  0.2811
  S  S142  1  0.313200  0.968000  0.559600  1.0  0.9758
  S  S143  1  0.600100  0.711400  0.591600  1.0  0.2811
  S  S144  1  0.813200  0.468000  0.559600  1.0  0.9758
  S  S145  1  0.100100  0.788600  0.091600  1.0  0.2801
  S  S146  1  0.313200  0.032000  0.059600  1.0  0.9764
  S  S147  1  0.600100  0.288600  0.091600  1.0  0.2801
  S  S148  1  0.813200  0.532000  0.059600  1.0  0.9764
  S  S149  1  0.899900  0.788600  0.408400  1.0  0.2788
  S  S150  1  0.686800  0.032000  0.440400  1.0  0.9725
  S  S151  1  0.399900  0.288600  0.408400  1.0  0.2788
  S  S152  1  0.186800  0.532000  0.440400  1.0  0.9725
  O  O153  1  0.333600  0.296900  0.045600  1.0  -0.5871
  O  O154  1  0.839600  0.160800  0.868700  1.0  -0.5705
  O  O155  1  0.984300  0.206400  0.901000  1.0  -0.5166
  O  O156  1  0.915000  0.154400  0.174400  1.0  -0.5949
  O  O157  1  0.141100  0.154700  0.116200  1.0  -0.7427
  O  O158  1  0.086600  0.132200  0.193600  1.0  -0.6938
  O  O159  1  0.672300  0.053300  0.918000  1.0  -0.5326
  O  O160  1  0.615700  0.952700  0.958900  1.0  -0.6715
  O  O161  1  0.713100  0.937700  0.891700  1.0  -0.6756
  O  O162  1  0.980200  0.994400  0.165800  1.0  -0.627
  O  O163  1  0.729400  0.008800  0.180600  1.0  -0.5801
  O  O164  1  0.863200  0.022000  0.229700  1.0  -0.6889
  O  O165  1  0.316900  0.194800  0.183800  1.0  -0.5736
  O  O166  1  0.833600  0.796900  0.045600  1.0  -0.5871
  O  O167  1  0.339600  0.660800  0.868700  1.0  -0.5705
  O  O168  1  0.484300  0.706400  0.901000  1.0  -0.5166
  O  O169  1  0.415000  0.654400  0.174400  1.0  -0.5949
  O  O170  1  0.641100  0.654700  0.116200  1.0  -0.7427
  O  O171  1  0.586600  0.632200  0.193600  1.0  -0.6938
  O  O172  1  0.172300  0.553300  0.918000  1.0  -0.5326
  O  O173  1  0.115700  0.452700  0.958900  1.0  -0.6715
  O  O174  1  0.213100  0.437700  0.891700  1.0  -0.6756
  O  O175  1  0.480200  0.494400  0.165800  1.0  -0.627
  O  O176  1  0.229400  0.508800  0.180600  1.0  -0.5801
  O  O177  1  0.363200  0.522000  0.229700  1.0  -0.6889
  O  O178  1  0.816900  0.694800  0.183800  1.0  -0.5736
  O  O179  1  0.666400  0.296900  0.454400  1.0  -0.5857
  O  O180  1  0.160400  0.160800  0.631300  1.0  -0.5712
  O  O181  1  0.015700  0.206400  0.599000  1.0  -0.5141
  O  O182  1  0.085000  0.154400  0.325600  1.0  -0.5958
  O  O183  1  0.858900  0.154700  0.383800  1.0  -0.7434
  O  O184  1  0.913400  0.132200  0.306400  1.0  -0.6954
  O  O185  1  0.327700  0.053300  0.582000  1.0  -0.5312
  O  O186  1  0.384300  0.952700  0.541100  1.0  -0.6727
  O  O187  1  0.286900  0.937700  0.608300  1.0  -0.6742
  O  O188  1  0.019800  0.994400  0.334200  1.0  -0.6275
  O  O189  1  0.270600  0.008800  0.319400  1.0  -0.5814
  O  O190  1  0.136800  0.022000  0.270300  1.0  -0.6891
  O  O191  1  0.683100  0.194800  0.316200  1.0  -0.5742
  O  O192  1  0.166400  0.796900  0.454400  1.0  -0.5857
  O  O193  1  0.660400  0.660800  0.631300  1.0  -0.5712
  O  O194  1  0.515700  0.706400  0.599000  1.0  -0.5141
  O  O195  1  0.585000  0.654400  0.325600  1.0  -0.5958
  O  O196  1  0.358900  0.654700  0.383800  1.0  -0.7434
  O  O197  1  0.413400  0.632200  0.306400  1.0  -0.6954
  O  O198  1  0.827700  0.553300  0.582000  1.0  -0.5312
  O  O199  1  0.884300  0.452700  0.541100  1.0  -0.6727
  O  O200  1  0.786900  0.437700  0.608300  1.0  -0.6742
  O  O201  1  0.519800  0.494400  0.334200  1.0  -0.6275
  O  O202  1  0.770600  0.508800  0.319400  1.0  -0.5814
  O  O203  1  0.636800  0.522000  0.270300  1.0  -0.6891
  O  O204  1  0.183100  0.694800  0.316200  1.0  -0.5742
  O  O205  1  0.666400  0.703100  0.954400  1.0  -0.5859
  O  O206  1  0.160400  0.839200  0.131300  1.0  -0.5705
  O  O207  1  0.015700  0.793600  0.099000  1.0  -0.5135
  O  O208  1  0.085000  0.845600  0.825600  1.0  -0.5945
  O  O209  1  0.858900  0.845300  0.883800  1.0  -0.7434
  O  O210  1  0.913400  0.867800  0.806400  1.0  -0.6951
  O  O211  1  0.327700  0.946700  0.082000  1.0  -0.5308
  O  O212  1  0.384300  0.047300  0.041100  1.0  -0.6724
  O  O213  1  0.286900  0.062300  0.108300  1.0  -0.6744
  O  O214  1  0.019800  0.005600  0.834200  1.0  -0.6283
  O  O215  1  0.270600  0.991200  0.819400  1.0  -0.5809
  O  O216  1  0.136800  0.978000  0.770300  1.0  -0.6887
  O  O217  1  0.683100  0.805200  0.816200  1.0  -0.5751
  O  O218  1  0.166400  0.203100  0.954400  1.0  -0.5859
  O  O219  1  0.660400  0.339200  0.131300  1.0  -0.5705
  O  O220  1  0.515700  0.293600  0.099000  1.0  -0.5135
  O  O221  1  0.585000  0.345600  0.825600  1.0  -0.5945
  O  O222  1  0.358900  0.345300  0.883800  1.0  -0.7434
  O  O223  1  0.413400  0.367800  0.806400  1.0  -0.6951
  O  O224  1  0.827700  0.446700  0.082000  1.0  -0.5308
  O  O225  1  0.884300  0.547300  0.041100  1.0  -0.6724
  O  O226  1  0.786900  0.562300  0.108300  1.0  -0.6744
  O  O227  1  0.519800  0.505600  0.834200  1.0  -0.6283
  O  O228  1  0.770600  0.491200  0.819400  1.0  -0.5809
  O  O229  1  0.636800  0.478000  0.770300  1.0  -0.6887
  O  O230  1  0.183100  0.305200  0.816200  1.0  -0.5751
  O  O231  1  0.333600  0.703100  0.545600  1.0  -0.5873
  O  O232  1  0.839600  0.839200  0.368700  1.0  -0.5704
  O  O233  1  0.984300  0.793600  0.401000  1.0  -0.5157
  O  O234  1  0.915000  0.845600  0.674400  1.0  -0.5959
  O  O235  1  0.141100  0.845300  0.616200  1.0  -0.7434
  O  O236  1  0.086600  0.867800  0.693600  1.0  -0.6932
  O  O237  1  0.672300  0.946700  0.418000  1.0  -0.5321
  O  O238  1  0.615700  0.047300  0.458900  1.0  -0.6715
  O  O239  1  0.713100  0.062300  0.391700  1.0  -0.675
  O  O240  1  0.980200  0.005600  0.665800  1.0  -0.6269
  O  O241  1  0.729400  0.991200  0.680600  1.0  -0.5815
  O  O242  1  0.863200  0.978000  0.729700  1.0  -0.6896
  O  O243  1  0.316900  0.805200  0.683800  1.0  -0.5741
  O  O244  1  0.833600  0.203100  0.545600  1.0  -0.5873
  O  O245  1  0.339600  0.339200  0.368700  1.0  -0.5704
  O  O246  1  0.484300  0.293600  0.401000  1.0  -0.5157
  O  O247  1  0.415000  0.345600  0.674400  1.0  -0.5959
  O  O248  1  0.641100  0.345300  0.616200  1.0  -0.7434
  O  O249  1  0.586600  0.367800  0.693600  1.0  -0.6932
  O  O250  1  0.172300  0.446700  0.418000  1.0  -0.5321
  O  O251  1  0.115700  0.547300  0.458900  1.0  -0.6715
  O  O252  1  0.213100  0.562300  0.391700  1.0  -0.675
  O  O253  1  0.480200  0.505600  0.665800  1.0  -0.6269
  O  O254  1  0.229400  0.491200  0.680600  1.0  -0.5815
  O  O255  1  0.363200  0.478000  0.729700  1.0  -0.6896
  O  O256  1  0.816900  0.305200  0.683800  1.0  -0.5741
