# generated using pymatgen
data_FeH9C11(NO)2
_symmetry_space_group_name_H-M   'P 1'
_cell_length_a   8.12560000
_cell_length_b   10.50210000
_cell_length_c   11.38170000
_cell_angle_alpha   62.52510000
_cell_angle_beta   84.32930000
_cell_angle_gamma   77.63300000
_symmetry_Int_Tables_number   1
_chemical_formula_structural   FeH9C11(NO)2
_chemical_formula_sum   'Fe2 H18 C22 N4 O4'
_cell_volume   841.72536697
_cell_formula_units_Z   2
loop_
 _symmetry_equiv_pos_site_id
 _symmetry_equiv_pos_as_xyz
  1  'x, y, z'
loop_
 _atom_site_type_symbol
 _atom_site_label
 _atom_site_symmetry_multiplicity
 _atom_site_fract_x
 _atom_site_fract_y
 _atom_site_fract_z
 _atom_site_occupancy
 _atom_site_charge
  Fe  Fe1  1  0.357980  0.244410  0.507800  1.0  0.8085
  Fe  Fe2  1  0.857980  0.752210  0.492200  1.0  0.8086
  H  H3  1  0.572700  0.949900  0.542600  1.0  0.0054
  H  H4  1  0.275500  0.936900  0.631600  1.0  0.061
  H  H5  1  0.269400  0.733800  0.829800  1.0  0.0993
  H  H6  1  0.452500  0.931400  0.001400  1.0  0.1039
  H  H7  1  0.455500  0.128000  0.797800  1.0  0.0637
  H  H8  1  0.291000  0.543800  0.011000  1.0  0.1032
  H  H9  1  0.290400  0.347900  0.215200  1.0  0.0657
  H  H10  1  0.406800  0.767700  0.186400  1.0  0.1073
  H  H11  1  0.406200  0.563600  0.384600  1.0  0.059
  H  H12  1  0.072700  0.492500  0.457400  1.0  0.0048
  H  H13  1  0.775500  0.568500  0.368400  1.0  0.0594
  H  H14  1  0.769400  0.563600  0.170200  1.0  0.0986
  H  H15  1  0.952500  0.932800  0.998600  1.0  0.1044
  H  H16  1  0.955500  0.925800  0.202200  1.0  0.0633
  H  H17  1  0.791000  0.554800  0.989000  1.0  0.1014
  H  H18  1  0.790400  0.563100  0.784800  1.0  0.0653
  H  H19  1  0.906800  0.954100  0.813600  1.0  0.1055
  H  H20  1  0.906200  0.948200  0.615400  1.0  0.0573
  C  C21  1  0.595100  0.012160  0.455280  1.0  0.6797
  C  C22  1  0.311300  0.936070  0.707060  1.0  0.1442
  C  C23  1  0.306700  0.813150  0.826500  1.0  -0.229
  C  C24  1  0.357600  0.808260  0.941280  1.0  0.0668
  C  C25  1  0.415000  0.929670  0.927660  1.0  -0.2038
  C  C26  1  0.416300  0.047960  0.804480  1.0  0.1378
  C  C27  1  0.352100  0.680110  0.072780  1.0  0.0632
  C  C28  1  0.315400  0.550830  0.085740  1.0  -0.2047
  C  C29  1  0.315300  0.433130  0.209140  1.0  0.1365
  C  C30  1  0.384300  0.683200  0.189000  1.0  -0.2368
  C  C31  1  0.382600  0.559780  0.308040  1.0  0.1449
  C  C32  1  0.095100  0.467440  0.544720  1.0  0.6794
  C  C33  1  0.811300  0.643130  0.292940  1.0  0.1465
  C  C34  1  0.806700  0.639650  0.173500  1.0  -0.2309
  C  C35  1  0.857600  0.749540  0.058720  1.0  0.0648
  C  C36  1  0.915000  0.857330  0.072340  1.0  -0.2042
  C  C37  1  0.916300  0.852440  0.195520  1.0  0.1386
  C  C38  1  0.852100  0.752890  0.927220  1.0  0.0621
  C  C39  1  0.815400  0.636570  0.914260  1.0  -0.2064
  C  C40  1  0.815300  0.642270  0.790860  1.0  0.1384
  C  C41  1  0.884300  0.872200  0.811000  1.0  -0.2405
  C  C42  1  0.882600  0.867820  0.691960  1.0  0.1423
  N  N43  1  0.349100  0.435360  0.320480  1.0  -0.3497
  N  N44  1  0.364000  0.053470  0.694060  1.0  -0.3409
  N  N45  1  0.849100  0.755840  0.679520  1.0  -0.3588
  N  N46  1  0.864000  0.747530  0.305940  1.0  -0.3519
  O  O47  1  0.507700  0.137790  0.405420  1.0  -0.6386
  O  O48  1  0.709800  0.963220  0.397760  1.0  -0.6282
  O  O49  1  0.007700  0.543210  0.594580  1.0  -0.6377
  O  O50  1  0.209800  0.360980  0.602240  1.0  -0.6284
