# generated using pymatgen
data_GdH6C21(NO3)6
_symmetry_space_group_name_H-M   'P 1'
_cell_length_a   25.17900000
_cell_length_b   14.74700000
_cell_length_c   26.05300000
_cell_angle_alpha   90.00000000
_cell_angle_beta   94.96400000
_cell_angle_gamma   90.00000000
_symmetry_Int_Tables_number   1
_chemical_formula_structural   GdH6C21(NO3)6
_chemical_formula_sum   'Gd8 H48 C168 N48 O144'
_cell_volume   9637.57810499
_cell_formula_units_Z   8
loop_
 _symmetry_equiv_pos_site_id
 _symmetry_equiv_pos_as_xyz
  1  'x, y, z'
loop_
 _atom_site_type_symbol
 _atom_site_label
 _atom_site_symmetry_multiplicity
 _atom_site_fract_x
 _atom_site_fract_y
 _atom_site_fract_z
 _atom_site_occupancy
 _atom_site_charge
  Gd  Gd1  1  0.850250  0.245710  0.007080  1.0  1.9285
  Gd  Gd2  1  0.350250  0.745710  0.007080  1.0  1.9285
  Gd  Gd3  1  0.149750  0.245710  0.492920  1.0  1.9278
  Gd  Gd4  1  0.649750  0.745710  0.492920  1.0  1.9278
  Gd  Gd5  1  0.149750  0.754290  0.992920  1.0  1.9279
  Gd  Gd6  1  0.649750  0.254290  0.992920  1.0  1.9279
  Gd  Gd7  1  0.850250  0.754290  0.507080  1.0  1.9293
  Gd  Gd8  1  0.350250  0.254290  0.507080  1.0  1.9293
  H  H9  1  0.784100  0.118300  0.138700  1.0  0.1265
  H  H10  1  0.858200  0.883000  0.118200  1.0  0.1415
  H  H11  1  0.833900  0.898000  0.389100  1.0  0.1435
  H  H12  1  0.688200  0.822500  0.331900  1.0  0.1356
  H  H13  1  0.951400  0.219000  0.879400  1.0  0.1433
  H  H14  1  0.873100  0.414200  0.798800  1.0  0.1347
  H  H15  1  0.284100  0.618300  0.138700  1.0  0.1265
  H  H16  1  0.358200  0.383000  0.118200  1.0  0.1415
  H  H17  1  0.333900  0.398000  0.389100  1.0  0.1435
  H  H18  1  0.188200  0.322500  0.331900  1.0  0.1356
  H  H19  1  0.451400  0.719000  0.879400  1.0  0.1432
  H  H20  1  0.373100  0.914200  0.798800  1.0  0.1347
  H  H21  1  0.215900  0.118300  0.361300  1.0  0.1274
  H  H22  1  0.141800  0.883000  0.381800  1.0  0.1407
  H  H23  1  0.166100  0.898000  0.110900  1.0  0.1417
  H  H24  1  0.311800  0.822500  0.168100  1.0  0.1363
  H  H25  1  0.048600  0.219000  0.620600  1.0  0.1418
  H  H26  1  0.126900  0.414200  0.701200  1.0  0.1348
  H  H27  1  0.715900  0.618300  0.361300  1.0  0.1274
  H  H28  1  0.641800  0.383000  0.381800  1.0  0.1407
  H  H29  1  0.666100  0.398000  0.110900  1.0  0.1417
  H  H30  1  0.811800  0.322500  0.168100  1.0  0.1363
  H  H31  1  0.548600  0.719000  0.620600  1.0  0.1418
  H  H32  1  0.626900  0.914200  0.701200  1.0  0.1348
  H  H33  1  0.215900  0.881700  0.861300  1.0  0.1273
  H  H34  1  0.141800  0.117000  0.881800  1.0  0.1428
  H  H35  1  0.166100  0.102000  0.610900  1.0  0.1428
  H  H36  1  0.311800  0.177500  0.668100  1.0  0.1361
  H  H37  1  0.048600  0.781000  0.120600  1.0  0.1422
  H  H38  1  0.126900  0.585800  0.201200  1.0  0.1341
  H  H39  1  0.715900  0.381700  0.861300  1.0  0.1273
  H  H40  1  0.641800  0.617000  0.881800  1.0  0.1428
  H  H41  1  0.666100  0.602000  0.610900  1.0  0.1428
  H  H42  1  0.811800  0.677500  0.668100  1.0  0.1361
  H  H43  1  0.548600  0.281000  0.120600  1.0  0.1421
  H  H44  1  0.626900  0.085800  0.201200  1.0  0.1341
  H  H45  1  0.784100  0.881700  0.638700  1.0  0.1267
  H  H46  1  0.858200  0.117000  0.618200  1.0  0.1423
  H  H47  1  0.833900  0.102000  0.889100  1.0  0.1439
  H  H48  1  0.688200  0.177500  0.831900  1.0  0.1355
  H  H49  1  0.951400  0.781000  0.379400  1.0  0.144
  H  H50  1  0.873100  0.585800  0.298800  1.0  0.1324
  H  H51  1  0.284100  0.381700  0.638700  1.0  0.1267
  H  H52  1  0.358200  0.617000  0.618200  1.0  0.1423
  H  H53  1  0.333900  0.602000  0.889100  1.0  0.1439
  H  H54  1  0.188200  0.677500  0.831900  1.0  0.1355
  H  H55  1  0.451400  0.281000  0.379400  1.0  0.144
  H  H56  1  0.373100  0.085800  0.298800  1.0  0.1324
  C  C57  1  0.841800  0.041300  0.069900  1.0  0.7266
  C  C58  1  0.824100  0.007500  0.120500  1.0  -0.123
  C  C59  1  0.794800  0.061000  0.150300  1.0  -0.0445
  C  C60  1  0.781100  0.030600  0.197600  1.0  0.0605
  C  C61  1  0.795200  0.944400  0.217300  1.0  0.0567
  C  C62  1  0.824400  0.892200  0.185000  1.0  -0.0022
  C  C63  1  0.838800  0.920900  0.138100  1.0  -0.0123
  C  C64  1  0.781600  0.915000  0.269700  1.0  0.023
  C  C65  1  0.817900  0.923600  0.312900  1.0  0.0097
  C  C66  1  0.808000  0.892900  0.361600  1.0  -0.0011
  C  C67  1  0.758800  0.854800  0.368500  1.0  -0.1433
  C  C68  1  0.721600  0.846600  0.327300  1.0  -0.0488
  C  C69  1  0.733500  0.874300  0.278700  1.0  -0.0295
  C  C70  1  0.866900  0.325600  0.885700  1.0  0.7342
  C  C71  1  0.906600  0.318800  0.845500  1.0  -0.0995
  C  C72  1  0.947500  0.256600  0.850700  1.0  -0.0333
  C  C73  1  0.982600  0.250200  0.813100  1.0  -0.01
  C  C74  1  0.979700  0.304000  0.769600  1.0  0.0471
  C  C75  1  0.937700  0.366200  0.765500  1.0  0.0591
  C  C76  1  0.901100  0.372900  0.803000  1.0  -0.036
  C  C77  1  0.745600  0.822800  0.421600  1.0  0.75
  C  C78  1  0.341800  0.541300  0.069900  1.0  0.7261
  C  C79  1  0.324100  0.507500  0.120500  1.0  -0.123
  C  C80  1  0.294800  0.561000  0.150300  1.0  -0.0445
  C  C81  1  0.281100  0.530600  0.197600  1.0  0.0605
  C  C82  1  0.295200  0.444400  0.217300  1.0  0.0567
  C  C83  1  0.324400  0.392200  0.185000  1.0  -0.0023
  C  C84  1  0.338800  0.420900  0.138100  1.0  -0.0112
  C  C85  1  0.281600  0.415000  0.269700  1.0  0.023
  C  C86  1  0.317900  0.423600  0.312900  1.0  0.0097
  C  C87  1  0.308000  0.392900  0.361600  1.0  -0.0011
  C  C88  1  0.258800  0.354800  0.368500  1.0  -0.1433
  C  C89  1  0.221600  0.346600  0.327300  1.0  -0.0488
  C  C90  1  0.233500  0.374300  0.278700  1.0  -0.0295
  C  C91  1  0.366900  0.825600  0.885700  1.0  0.7342
  C  C92  1  0.406600  0.818800  0.845500  1.0  -0.0995
  C  C93  1  0.447500  0.756600  0.850700  1.0  -0.0333
  C  C94  1  0.482600  0.750200  0.813100  1.0  -0.01
  C  C95  1  0.479700  0.804000  0.769600  1.0  0.0471
  C  C96  1  0.437700  0.866200  0.765500  1.0  0.0591
  C  C97  1  0.401100  0.872900  0.803000  1.0  -0.036
  C  C98  1  0.245600  0.322800  0.421600  1.0  0.75
  C  C99  1  0.158200  0.041300  0.430100  1.0  0.7239
  C  C100  1  0.175900  0.007500  0.379500  1.0  -0.122
  C  C101  1  0.205200  0.061000  0.349700  1.0  -0.0442
  C  C102  1  0.218900  0.030600  0.302400  1.0  0.0548
  C  C103  1  0.204800  0.944400  0.282700  1.0  0.0564
  C  C104  1  0.175600  0.892200  0.315000  1.0  -0.0027
  C  C105  1  0.161200  0.920900  0.361900  1.0  -0.008
  C  C106  1  0.218400  0.915000  0.230300  1.0  0.0242
  C  C107  1  0.182100  0.923600  0.187100  1.0  0.0171
  C  C108  1  0.192000  0.892900  0.138400  1.0  -0.0065
  C  C109  1  0.241200  0.854800  0.131500  1.0  -0.1425
  C  C110  1  0.278400  0.846600  0.172700  1.0  -0.0474
  C  C111  1  0.266500  0.874300  0.221300  1.0  -0.0307
  C  C112  1  0.133100  0.325600  0.614300  1.0  0.7377
  C  C113  1  0.093400  0.318800  0.654500  1.0  -0.108
  C  C114  1  0.052500  0.256600  0.649300  1.0  -0.0359
  C  C115  1  0.017400  0.250200  0.686900  1.0  -0.0175
  C  C116  1  0.020300  0.304000  0.730400  1.0  0.0475
  C  C117  1  0.062300  0.366200  0.734500  1.0  0.0585
  C  C118  1  0.098900  0.372900  0.697000  1.0  -0.0323
  C  C119  1  0.254400  0.822800  0.078400  1.0  0.7513
  C  C120  1  0.658200  0.541300  0.430100  1.0  0.7234
  C  C121  1  0.675900  0.507500  0.379500  1.0  -0.122
  C  C122  1  0.705200  0.561000  0.349700  1.0  -0.0442
  C  C123  1  0.718900  0.530600  0.302400  1.0  0.0545
  C  C124  1  0.704800  0.444400  0.282700  1.0  0.0564
  C  C125  1  0.675600  0.392200  0.315000  1.0  -0.0026
  C  C126  1  0.661200  0.420900  0.361900  1.0  -0.0073
  C  C127  1  0.718400  0.415000  0.230300  1.0  0.0242
  C  C128  1  0.682100  0.423600  0.187100  1.0  0.0171
  C  C129  1  0.692000  0.392900  0.138400  1.0  -0.0065
  C  C130  1  0.741200  0.354800  0.131500  1.0  -0.1425
  C  C131  1  0.778400  0.346600  0.172700  1.0  -0.0474
  C  C132  1  0.766500  0.374300  0.221300  1.0  -0.0307
  C  C133  1  0.633100  0.825600  0.614300  1.0  0.7377
  C  C134  1  0.593400  0.818800  0.654500  1.0  -0.108
  C  C135  1  0.552500  0.756600  0.649300  1.0  -0.0314
  C  C136  1  0.517400  0.750200  0.686900  1.0  -0.0175
  C  C137  1  0.520300  0.804000  0.730400  1.0  0.0478
  C  C138  1  0.562300  0.866200  0.734500  1.0  0.0585
  C  C139  1  0.598900  0.872900  0.697000  1.0  -0.0323
  C  C140  1  0.754400  0.322800  0.078400  1.0  0.7513
  C  C141  1  0.158200  0.958700  0.930100  1.0  0.7236
  C  C142  1  0.175900  0.992500  0.879500  1.0  -0.1218
  C  C143  1  0.205200  0.939000  0.849700  1.0  -0.0448
  C  C144  1  0.218900  0.969400  0.802400  1.0  0.0549
  C  C145  1  0.204800  0.055600  0.782700  1.0  0.0565
  C  C146  1  0.175600  0.107800  0.815000  1.0  -0.0025
  C  C147  1  0.161200  0.079100  0.861900  1.0  -0.0099
  C  C148  1  0.218400  0.085000  0.730300  1.0  0.0243
  C  C149  1  0.182100  0.076400  0.687100  1.0  0.0102
  C  C150  1  0.192000  0.107100  0.638400  1.0  -0.0053
  C  C151  1  0.241200  0.145200  0.631500  1.0  -0.1424
  C  C152  1  0.278400  0.153400  0.672700  1.0  -0.0509
  C  C153  1  0.266500  0.125700  0.721300  1.0  -0.0307
  C  C154  1  0.133100  0.674400  0.114300  1.0  0.7372
  C  C155  1  0.093400  0.681200  0.154500  1.0  -0.109
  C  C156  1  0.052500  0.743400  0.149300  1.0  -0.0392
  C  C157  1  0.017400  0.749800  0.186900  1.0  -0.0173
  C  C158  1  0.020300  0.696000  0.230400  1.0  0.0468
  C  C159  1  0.062300  0.633800  0.234500  1.0  0.0595
  C  C160  1  0.098900  0.627100  0.197000  1.0  -0.0274
  C  C161  1  0.254400  0.177200  0.578400  1.0  0.7482
  C  C162  1  0.658200  0.458700  0.930100  1.0  0.7236
  C  C163  1  0.675900  0.492500  0.879500  1.0  -0.1218
  C  C164  1  0.705200  0.439000  0.849700  1.0  -0.0448
  C  C165  1  0.718900  0.469400  0.802400  1.0  0.0549
  C  C166  1  0.704800  0.555600  0.782700  1.0  0.0565
  C  C167  1  0.675600  0.607800  0.815000  1.0  -0.0025
  C  C168  1  0.661200  0.579100  0.861900  1.0  -0.0099
  C  C169  1  0.718400  0.585000  0.730300  1.0  0.0243
  C  C170  1  0.682100  0.576400  0.687100  1.0  0.0158
  C  C171  1  0.692000  0.607100  0.638400  1.0  -0.0053
  C  C172  1  0.741200  0.645200  0.631500  1.0  -0.1424
  C  C173  1  0.778400  0.653400  0.672700  1.0  -0.0509
  C  C174  1  0.766500  0.625700  0.721300  1.0  -0.0307
  C  C175  1  0.633100  0.174400  0.114300  1.0  0.7372
  C  C176  1  0.593400  0.181200  0.154500  1.0  -0.109
  C  C177  1  0.552500  0.243400  0.149300  1.0  -0.0377
  C  C178  1  0.517400  0.249800  0.186900  1.0  -0.0173
  C  C179  1  0.520300  0.196000  0.230400  1.0  0.0467
  C  C180  1  0.562300  0.133800  0.234500  1.0  0.0595
  C  C181  1  0.598900  0.127100  0.197000  1.0  -0.0274
  C  C182  1  0.754400  0.677200  0.578400  1.0  0.7482
  C  C183  1  0.841800  0.958700  0.569900  1.0  0.726
  C  C184  1  0.824100  0.992500  0.620500  1.0  -0.1235
  C  C185  1  0.794800  0.939000  0.650300  1.0  -0.045
  C  C186  1  0.781100  0.969400  0.697600  1.0  0.0603
  C  C187  1  0.795200  0.055600  0.717300  1.0  0.0567
  C  C188  1  0.824400  0.107800  0.685000  1.0  -0.0023
  C  C189  1  0.838800  0.079100  0.638100  1.0  -0.0143
  C  C190  1  0.781600  0.085000  0.769700  1.0  0.0232
  C  C191  1  0.817900  0.076400  0.812900  1.0  0.0085
  C  C192  1  0.808000  0.107100  0.861600  1.0  -0.0038
  C  C193  1  0.758800  0.145200  0.868500  1.0  -0.143
  C  C194  1  0.721600  0.153400  0.827300  1.0  -0.0491
  C  C195  1  0.733500  0.125700  0.778700  1.0  -0.0275
  C  C196  1  0.866900  0.674400  0.385700  1.0  0.7348
  C  C197  1  0.906600  0.681200  0.345500  1.0  -0.1008
  C  C198  1  0.947500  0.743400  0.350700  1.0  -0.0387
  C  C199  1  0.982600  0.749800  0.313100  1.0  -0.0168
  C  C200  1  0.979700  0.696000  0.269600  1.0  0.0466
  C  C201  1  0.937700  0.633800  0.265500  1.0  0.0602
  C  C202  1  0.901100  0.627100  0.303000  1.0  -0.0302
  C  C203  1  0.745600  0.177200  0.921600  1.0  0.7486
  C  C204  1  0.341800  0.458700  0.569900  1.0  0.726
  C  C205  1  0.324100  0.492500  0.620500  1.0  -0.1235
  C  C206  1  0.294800  0.439000  0.650300  1.0  -0.045
  C  C207  1  0.281100  0.469400  0.697600  1.0  0.0603
  C  C208  1  0.295200  0.555600  0.717300  1.0  0.0567
  C  C209  1  0.324400  0.607800  0.685000  1.0  -0.0023
  C  C210  1  0.338800  0.579100  0.638100  1.0  -0.0143
  C  C211  1  0.281600  0.585000  0.769700  1.0  0.0232
  C  C212  1  0.317900  0.576400  0.812900  1.0  0.0086
  C  C213  1  0.308000  0.607100  0.861600  1.0  -0.0038
  C  C214  1  0.258800  0.645200  0.868500  1.0  -0.143
  C  C215  1  0.221600  0.653400  0.827300  1.0  -0.0491
  C  C216  1  0.233500  0.625700  0.778700  1.0  -0.0275
  C  C217  1  0.366900  0.174400  0.385700  1.0  0.7348
  C  C218  1  0.406600  0.181200  0.345500  1.0  -0.1008
  C  C219  1  0.447500  0.243400  0.350700  1.0  -0.0387
  C  C220  1  0.482600  0.249800  0.313100  1.0  -0.0168
  C  C221  1  0.479700  0.196000  0.269600  1.0  0.0466
  C  C222  1  0.437700  0.133800  0.265500  1.0  0.0602
  C  C223  1  0.401100  0.127100  0.303000  1.0  -0.0302
  C  C224  1  0.245600  0.677200  0.921600  1.0  0.7486
  N  N225  1  0.751400  0.091300  0.228100  1.0  0.6259
  N  N226  1  0.839800  0.798900  0.199900  1.0  0.6155
  N  N227  1  0.869600  0.965900  0.308700  1.0  0.6511
  N  N228  1  0.693100  0.855000  0.236200  1.0  0.6441
  N  N229  1  0.928200  0.425100  0.720900  1.0  0.657
  N  N230  1  0.025600  0.183000  0.821900  1.0  0.617
  N  N231  1  0.251400  0.591300  0.228100  1.0  0.6259
  N  N232  1  0.339800  0.298900  0.199900  1.0  0.6155
  N  N233  1  0.369600  0.465900  0.308700  1.0  0.6511
  N  N234  1  0.193100  0.355000  0.236200  1.0  0.6441
  N  N235  1  0.428200  0.925100  0.720900  1.0  0.657
  N  N236  1  0.525600  0.683000  0.821900  1.0  0.617
  N  N237  1  0.248600  0.091300  0.271900  1.0  0.6259
  N  N238  1  0.160200  0.798900  0.300100  1.0  0.6134
  N  N239  1  0.130400  0.965900  0.191300  1.0  0.6475
  N  N240  1  0.306900  0.855000  0.263800  1.0  0.6458
  N  N241  1  0.071800  0.425100  0.779100  1.0  0.6538
  N  N242  1  0.974400  0.183000  0.678100  1.0  0.6178
  N  N243  1  0.748600  0.591300  0.271900  1.0  0.6259
  N  N244  1  0.660200  0.298900  0.300100  1.0  0.6134
  N  N245  1  0.630400  0.465900  0.191300  1.0  0.6475
  N  N246  1  0.806900  0.355000  0.263800  1.0  0.6458
  N  N247  1  0.571800  0.925100  0.779100  1.0  0.6538
  N  N248  1  0.474400  0.683000  0.678100  1.0  0.6178
  N  N249  1  0.248600  0.908700  0.771900  1.0  0.6255
  N  N250  1  0.160200  0.201100  0.800100  1.0  0.6147
  N  N251  1  0.130400  0.034100  0.691300  1.0  0.6458
  N  N252  1  0.306900  0.145000  0.763800  1.0  0.6457
  N  N253  1  0.071800  0.574900  0.279100  1.0  0.6511
  N  N254  1  0.974400  0.817000  0.178100  1.0  0.6197
  N  N255  1  0.748600  0.408700  0.771900  1.0  0.6255
  N  N256  1  0.660200  0.701100  0.800100  1.0  0.6147
  N  N257  1  0.630400  0.534100  0.691300  1.0  0.6458
  N  N258  1  0.806900  0.645000  0.763800  1.0  0.6457
  N  N259  1  0.571800  0.074900  0.279100  1.0  0.6511
  N  N260  1  0.474400  0.317000  0.178100  1.0  0.6197
  N  N261  1  0.751400  0.908700  0.728100  1.0  0.6271
  N  N262  1  0.839800  0.201100  0.699900  1.0  0.6168
  N  N263  1  0.869600  0.034100  0.808700  1.0  0.6524
  N  N264  1  0.693100  0.145000  0.736200  1.0  0.6445
  N  N265  1  0.928200  0.574900  0.220900  1.0  0.6534
  N  N266  1  0.025600  0.817000  0.321900  1.0  0.6181
  N  N267  1  0.251400  0.408700  0.728100  1.0  0.6271
  N  N268  1  0.339800  0.701100  0.699900  1.0  0.6168
  N  N269  1  0.369600  0.534100  0.808700  1.0  0.6524
  N  N270  1  0.193100  0.645000  0.736200  1.0  0.6445
  N  N271  1  0.428200  0.074900  0.220900  1.0  0.6534
  N  N272  1  0.525600  0.317000  0.321900  1.0  0.6181
  O  O273  1  0.821500  0.114000  0.053310  1.0  -0.6557
  O  O274  1  0.876600  0.996300  0.050310  1.0  -0.4914
  O  O275  1  0.765000  0.170400  0.229600  1.0  -0.3801
  O  O276  1  0.842400  0.778700  0.245300  1.0  -0.3712
  O  O277  1  0.850900  0.747200  0.166100  1.0  -0.3704
  O  O278  1  0.706400  0.858400  0.192200  1.0  -0.3447
  O  O279  1  0.649100  0.830900  0.246330  1.0  -0.3615
  O  O280  1  0.872700  0.027900  0.277500  1.0  -0.3739
  O  O281  1  0.907600  0.938300  0.336400  1.0  -0.3826
  O  O282  1  0.879400  0.281500  0.926710  1.0  -0.7683
  O  O283  1  0.826700  0.371500  0.875990  1.0  -0.5165
  O  O284  1  0.036100  0.156200  0.865700  1.0  -0.3725
  O  O285  1  0.049100  0.157700  0.785650  1.0  -0.4165
  O  O286  1  0.903100  0.491900  0.724900  1.0  -0.355
  O  O287  1  0.943100  0.398900  0.680200  1.0  -0.3537
  O  O288  1  0.699300  0.796200  0.424880  1.0  -0.7557
  O  O289  1  0.782490  0.823600  0.456730  1.0  -0.7251
  O  O290  1  0.714400  0.060800  0.250400  1.0  -0.4352
  O  O291  1  0.321500  0.614000  0.053310  1.0  -0.6557
  O  O292  1  0.376600  0.496300  0.050310  1.0  -0.4914
  O  O293  1  0.265000  0.670400  0.229600  1.0  -0.3801
  O  O294  1  0.342400  0.278700  0.245300  1.0  -0.3712
  O  O295  1  0.350900  0.247200  0.166100  1.0  -0.3704
  O  O296  1  0.206400  0.358400  0.192200  1.0  -0.3447
  O  O297  1  0.149100  0.330900  0.246330  1.0  -0.3615
  O  O298  1  0.372700  0.527900  0.277500  1.0  -0.3739
  O  O299  1  0.407600  0.438300  0.336400  1.0  -0.3826
  O  O300  1  0.379400  0.781500  0.926710  1.0  -0.7694
  O  O301  1  0.326700  0.871500  0.875990  1.0  -0.513
  O  O302  1  0.536100  0.656200  0.865700  1.0  -0.3725
  O  O303  1  0.549100  0.657700  0.785650  1.0  -0.4165
  O  O304  1  0.403100  0.991900  0.724900  1.0  -0.355
  O  O305  1  0.443100  0.898900  0.680200  1.0  -0.3537
  O  O306  1  0.199300  0.296200  0.424880  1.0  -0.7557
  O  O307  1  0.282490  0.323600  0.456730  1.0  -0.7251
  O  O308  1  0.214400  0.560800  0.250400  1.0  -0.4352
  O  O309  1  0.178500  0.114000  0.446690  1.0  -0.6563
  O  O310  1  0.123400  0.996300  0.449690  1.0  -0.4953
  O  O311  1  0.235000  0.170400  0.270400  1.0  -0.38
  O  O312  1  0.157600  0.778700  0.254700  1.0  -0.3709
  O  O313  1  0.149100  0.747200  0.333900  1.0  -0.3694
  O  O314  1  0.293600  0.858400  0.307800  1.0  -0.3489
  O  O315  1  0.350900  0.830900  0.253670  1.0  -0.3582
  O  O316  1  0.127300  0.027900  0.222500  1.0  -0.376
  O  O317  1  0.092400  0.938300  0.163600  1.0  -0.3862
  O  O318  1  0.120600  0.281500  0.573290  1.0  -0.7711
  O  O319  1  0.173300  0.371500  0.624010  1.0  -0.5193
  O  O320  1  0.963900  0.156200  0.634300  1.0  -0.3705
  O  O321  1  0.950900  0.157700  0.714350  1.0  -0.4145
  O  O322  1  0.096900  0.491900  0.775100  1.0  -0.3552
  O  O323  1  0.056900  0.398900  0.819800  1.0  -0.3493
  O  O324  1  0.300700  0.796200  0.075120  1.0  -0.7555
  O  O325  1  0.217510  0.823600  0.043270  1.0  -0.7248
  O  O326  1  0.285600  0.060800  0.249600  1.0  -0.4343
  O  O327  1  0.678500  0.614000  0.446690  1.0  -0.6563
  O  O328  1  0.623400  0.496300  0.449690  1.0  -0.4953
  O  O329  1  0.735000  0.670400  0.270400  1.0  -0.38
  O  O330  1  0.657600  0.278700  0.254700  1.0  -0.3709
  O  O331  1  0.649100  0.247200  0.333900  1.0  -0.3694
  O  O332  1  0.793600  0.358400  0.307800  1.0  -0.3489
  O  O333  1  0.850900  0.330900  0.253670  1.0  -0.3582
  O  O334  1  0.627300  0.527900  0.222500  1.0  -0.376
  O  O335  1  0.592400  0.438300  0.163600  1.0  -0.3862
  O  O336  1  0.620600  0.781500  0.573290  1.0  -0.7711
  O  O337  1  0.673300  0.871500  0.624010  1.0  -0.5193
  O  O338  1  0.463900  0.656200  0.634300  1.0  -0.3719
  O  O339  1  0.450900  0.657700  0.714350  1.0  -0.4145
  O  O340  1  0.596900  0.991900  0.775100  1.0  -0.3552
  O  O341  1  0.556900  0.898900  0.819800  1.0  -0.3493
  O  O342  1  0.800700  0.296200  0.075120  1.0  -0.7555
  O  O343  1  0.717510  0.323600  0.043270  1.0  -0.7248
  O  O344  1  0.785600  0.560800  0.249600  1.0  -0.4343
  O  O345  1  0.178500  0.886000  0.946690  1.0  -0.6576
  O  O346  1  0.123400  0.003700  0.949690  1.0  -0.4954
  O  O347  1  0.235000  0.829600  0.770400  1.0  -0.3794
  O  O348  1  0.157600  0.221300  0.754700  1.0  -0.3706
  O  O349  1  0.149100  0.252800  0.833900  1.0  -0.3698
  O  O350  1  0.293600  0.141600  0.807800  1.0  -0.3483
  O  O351  1  0.350900  0.169100  0.753670  1.0  -0.3578
  O  O352  1  0.127300  0.972100  0.722500  1.0  -0.3733
  O  O353  1  0.092400  0.061700  0.663600  1.0  -0.3845
  O  O354  1  0.120600  0.718500  0.073290  1.0  -0.7698
  O  O355  1  0.173300  0.628500  0.124010  1.0  -0.5197
  O  O356  1  0.963900  0.843800  0.134300  1.0  -0.3712
  O  O357  1  0.950900  0.842300  0.214350  1.0  -0.4143
  O  O358  1  0.096900  0.508100  0.275100  1.0  -0.3569
  O  O359  1  0.056900  0.601100  0.319800  1.0  -0.3498
  O  O360  1  0.300700  0.203800  0.575120  1.0  -0.757
  O  O361  1  0.217510  0.176400  0.543270  1.0  -0.7248
  O  O362  1  0.285600  0.939200  0.749600  1.0  -0.4341
  O  O363  1  0.678500  0.386000  0.946690  1.0  -0.6576
  O  O364  1  0.623400  0.503700  0.949690  1.0  -0.4954
  O  O365  1  0.735000  0.329600  0.770400  1.0  -0.3794
  O  O366  1  0.657600  0.721300  0.754700  1.0  -0.3706
  O  O367  1  0.649100  0.752800  0.833900  1.0  -0.3698
  O  O368  1  0.793600  0.641600  0.807800  1.0  -0.3483
  O  O369  1  0.850900  0.669100  0.753670  1.0  -0.3578
  O  O370  1  0.627300  0.472100  0.722500  1.0  -0.3733
  O  O371  1  0.592400  0.561700  0.663600  1.0  -0.3813
  O  O372  1  0.620600  0.218500  0.073290  1.0  -0.7704
  O  O373  1  0.673300  0.128500  0.124010  1.0  -0.5162
  O  O374  1  0.463900  0.343800  0.134300  1.0  -0.3708
  O  O375  1  0.450900  0.342300  0.214350  1.0  -0.4143
  O  O376  1  0.596900  0.008100  0.275100  1.0  -0.3569
  O  O377  1  0.556900  0.101100  0.319800  1.0  -0.3498
  O  O378  1  0.800700  0.703800  0.575120  1.0  -0.757
  O  O379  1  0.717510  0.676400  0.543270  1.0  -0.7248
  O  O380  1  0.785600  0.439200  0.749600  1.0  -0.4341
  O  O381  1  0.821500  0.886000  0.553310  1.0  -0.6569
  O  O382  1  0.876600  0.003700  0.550310  1.0  -0.4918
  O  O383  1  0.765000  0.829600  0.729600  1.0  -0.3805
  O  O384  1  0.842400  0.221300  0.745300  1.0  -0.3717
  O  O385  1  0.850900  0.252800  0.666100  1.0  -0.3739
  O  O386  1  0.706400  0.141600  0.692200  1.0  -0.3453
  O  O387  1  0.649100  0.169100  0.746330  1.0  -0.3632
  O  O388  1  0.872700  0.972100  0.777500  1.0  -0.3741
  O  O389  1  0.907600  0.061700  0.836400  1.0  -0.3822
  O  O390  1  0.879400  0.718500  0.426710  1.0  -0.771
  O  O391  1  0.826700  0.628500  0.375990  1.0  -0.5172
  O  O392  1  0.036100  0.843800  0.365700  1.0  -0.3715
  O  O393  1  0.049100  0.842300  0.285650  1.0  -0.4156
  O  O394  1  0.903100  0.508100  0.224900  1.0  -0.3568
  O  O395  1  0.943100  0.601100  0.180200  1.0  -0.3512
  O  O396  1  0.699300  0.203800  0.924880  1.0  -0.7541
  O  O397  1  0.782490  0.176400  0.956730  1.0  -0.7259
  O  O398  1  0.714400  0.939200  0.750400  1.0  -0.435
  O  O399  1  0.321500  0.386000  0.553310  1.0  -0.6569
  O  O400  1  0.376600  0.503700  0.550310  1.0  -0.4918
  O  O401  1  0.265000  0.329600  0.729600  1.0  -0.3805
  O  O402  1  0.342400  0.721300  0.745300  1.0  -0.3717
  O  O403  1  0.350900  0.752800  0.666100  1.0  -0.3739
  O  O404  1  0.206400  0.641600  0.692200  1.0  -0.3453
  O  O405  1  0.149100  0.669100  0.746330  1.0  -0.3632
  O  O406  1  0.372700  0.472100  0.777500  1.0  -0.3741
  O  O407  1  0.407600  0.561700  0.836400  1.0  -0.3822
  O  O408  1  0.379400  0.218500  0.426710  1.0  -0.771
  O  O409  1  0.326700  0.128500  0.375990  1.0  -0.5172
  O  O410  1  0.536100  0.343800  0.365700  1.0  -0.3715
  O  O411  1  0.549100  0.342300  0.285650  1.0  -0.4156
  O  O412  1  0.403100  0.008100  0.224900  1.0  -0.3568
  O  O413  1  0.443100  0.101100  0.180200  1.0  -0.3512
  O  O414  1  0.199300  0.703800  0.924880  1.0  -0.7541
  O  O415  1  0.282490  0.676400  0.956730  1.0  -0.7259
  O  O416  1  0.214400  0.439200  0.750400  1.0  -0.435
