# generated using pymatgen
data_GdH6C21(NO3)6
_symmetry_space_group_name_H-M   'P 1'
_cell_length_a   13.13700000
_cell_length_b   30.22700000
_cell_length_c   23.32600000
_cell_angle_alpha   90.00000000
_cell_angle_beta   102.07500000
_cell_angle_gamma   90.00000000
_symmetry_Int_Tables_number   1
_chemical_formula_structural   GdH6C21(NO3)6
_chemical_formula_sum   'Gd8 H48 C168 N48 O144'
_cell_volume   9057.63229345
_cell_formula_units_Z   8
loop_
 _symmetry_equiv_pos_site_id
 _symmetry_equiv_pos_as_xyz
  1  'x, y, z'
loop_
 _atom_site_type_symbol
 _atom_site_label
 _atom_site_symmetry_multiplicity
 _atom_site_fract_x
 _atom_site_fract_y
 _atom_site_fract_z
 _atom_site_occupancy
 _atom_site_charge
  Gd  Gd1  1  0.649700  0.270180  0.771430  1.0  2.1822
  Gd  Gd2  1  0.349250  0.245130  0.699150  1.0  2.1608
  Gd  Gd3  1  0.850300  0.770180  0.728570  1.0  2.1831
  Gd  Gd4  1  0.150750  0.745130  0.800850  1.0  2.1611
  Gd  Gd5  1  0.350300  0.729820  0.228570  1.0  2.1826
  Gd  Gd6  1  0.650750  0.754870  0.300850  1.0  2.1613
  Gd  Gd7  1  0.149700  0.229820  0.271430  1.0  2.1822
  Gd  Gd8  1  0.849250  0.254870  0.199150  1.0  2.1621
  H  H9  1  0.683100  0.290800  0.631500  1.0  0.1275
  H  H10  1  0.516800  0.194600  0.536600  1.0  0.1422
  H  H11  1  0.030600  0.204500  0.453000  1.0  0.1378
  H  H12  1  0.808700  0.270300  0.340600  1.0  0.1269
  H  H13  1  0.573200  0.415500  0.774800  1.0  0.12
  H  H14  1  0.284700  0.393700  0.684000  1.0  0.1309
  H  H15  1  0.424000  0.100000  0.714100  1.0  0.1254
  H  H16  1  0.715100  0.125900  0.799200  1.0  0.125
  H  H17  1  0.698000  0.912900  0.654400  1.0  0.1379
  H  H18  1  0.675500  0.886700  0.820300  1.0  0.13
  H  H19  1  0.306800  0.631700  0.690600  1.0  0.1267
  H  H20  1  0.308800  0.597600  0.856500  1.0  0.1406
  H  H21  1  0.816900  0.790800  0.868500  1.0  0.1284
  H  H22  1  0.983200  0.694600  0.963400  1.0  0.1415
  H  H23  1  0.469400  0.704500  0.047000  1.0  0.1376
  H  H24  1  0.691300  0.770300  0.159400  1.0  0.1268
  H  H25  1  0.926800  0.915500  0.725200  1.0  0.1193
  H  H26  1  0.215300  0.893700  0.816000  1.0  0.1314
  H  H27  1  0.076000  0.600000  0.785900  1.0  0.1254
  H  H28  1  0.784900  0.625900  0.700800  1.0  0.1254
  H  H29  1  0.802000  0.412900  0.845600  1.0  0.1369
  H  H30  1  0.824500  0.386700  0.679700  1.0  0.1306
  H  H31  1  0.193200  0.131700  0.809400  1.0  0.1272
  H  H32  1  0.191200  0.097600  0.643500  1.0  0.1423
  H  H33  1  0.316900  0.709200  0.368500  1.0  0.1286
  H  H34  1  0.483200  0.805400  0.463400  1.0  0.1418
  H  H35  1  0.969400  0.795500  0.547000  1.0  0.1372
  H  H36  1  0.191300  0.729700  0.659400  1.0  0.1267
  H  H37  1  0.426800  0.584500  0.225200  1.0  0.12
  H  H38  1  0.715300  0.606300  0.316000  1.0  0.1315
  H  H39  1  0.576000  0.900000  0.285900  1.0  0.1257
  H  H40  1  0.284900  0.874100  0.200800  1.0  0.1252
  H  H41  1  0.302000  0.087100  0.345600  1.0  0.1368
  H  H42  1  0.324500  0.113300  0.179700  1.0  0.1303
  H  H43  1  0.693200  0.368300  0.309400  1.0  0.1273
  H  H44  1  0.691200  0.402400  0.143500  1.0  0.1424
  H  H45  1  0.183100  0.209200  0.131500  1.0  0.128
  H  H46  1  0.016800  0.305400  0.036600  1.0  0.1429
  H  H47  1  0.530600  0.295500  0.953000  1.0  0.1378
  H  H48  1  0.308700  0.229700  0.840600  1.0  0.1266
  H  H49  1  0.073200  0.084500  0.274800  1.0  0.1198
  H  H50  1  0.784700  0.106300  0.184000  1.0  0.1315
  H  H51  1  0.924000  0.400000  0.214100  1.0  0.1252
  H  H52  1  0.215100  0.374100  0.299200  1.0  0.1248
  H  H53  1  0.198000  0.587100  0.154400  1.0  0.138
  H  H54  1  0.175500  0.613300  0.320300  1.0  0.1303
  H  H55  1  0.806800  0.868300  0.190600  1.0  0.127
  H  H56  1  0.808800  0.902400  0.356500  1.0  0.1407
  C  C57  1  0.508900  0.244410  0.628900  1.0  0.7493
  C  C58  1  0.589100  0.242370  0.590800  1.0  -0.1207
  C  C59  1  0.673900  0.270510  0.600800  1.0  -0.0333
  C  C60  1  0.744500  0.268070  0.564600  1.0  -0.0106
  C  C61  1  0.734700  0.238830  0.517700  1.0  0.0267
  C  C62  1  0.646900  0.211850  0.509100  1.0  0.0176
  C  C63  1  0.574600  0.213170  0.544200  1.0  -0.0365
  C  C64  1  0.805300  0.239090  0.474900  1.0  0.0046
  C  C65  1  0.902100  0.217820  0.484500  1.0  -0.0667
  C  C66  1  0.965000  0.217430  0.444000  1.0  -0.011
  C  C67  1  0.928800  0.236560  0.389700  1.0  -0.1238
  C  C68  1  0.833300  0.257600  0.377100  1.0  -0.0469
  C  C69  1  0.774900  0.259280  0.420200  1.0  -0.0411
  C  C70  1  0.996100  0.234530  0.344900  1.0  0.7507
  C  C71  1  0.457400  0.347410  0.726800  1.0  0.7812
  C  C72  1  0.433000  0.396600  0.728900  1.0  -0.154
  C  C73  1  0.506600  0.425590  0.758300  1.0  -0.0321
  C  C74  1  0.481800  0.469780  0.763200  1.0  -0.0299
  C  C75  1  0.384100  0.487370  0.739600  1.0  0.021
  C  C76  1  0.312100  0.456490  0.710000  1.0  -0.0656
  C  C77  1  0.335200  0.412690  0.704400  1.0  -0.0064
  C  C78  1  0.541500  0.169810  0.753200  1.0  0.7808
  C  C79  1  0.565400  0.120800  0.756900  1.0  -0.146
  C  C80  1  0.490600  0.090560  0.731700  1.0  -0.0204
  C  C81  1  0.516000  0.045830  0.733100  1.0  -0.0101
  C  C82  1  0.613800  0.029370  0.756800  1.0  0.0582
  C  C83  1  0.688700  0.061590  0.780700  1.0  -0.0669
  C  C84  1  0.664500  0.105840  0.781700  1.0  -0.0007
  C  C85  1  0.640500  0.981650  0.751100  1.0  0.0376
  C  C86  1  0.659700  0.965580  0.698600  1.0  -0.0173
  C  C87  1  0.685900  0.922130  0.690500  1.0  -0.0343
  C  C88  1  0.694200  0.892380  0.736600  1.0  -0.1301
  C  C89  1  0.672000  0.906510  0.789400  1.0  -0.0191
  C  C90  1  0.644700  0.950190  0.795700  1.0  -0.0783
  C  C91  1  0.730600  0.845960  0.729200  1.0  0.723
  C  C92  1  0.258100  0.666850  0.785100  1.0  0.7204
  C  C93  1  0.297900  0.621440  0.774800  1.0  -0.1328
  C  C94  1  0.315900  0.610600  0.720200  1.0  -0.0046
  C  C95  1  0.347500  0.568260  0.709700  1.0  -0.0558
  C  C96  1  0.356300  0.534080  0.751300  1.0  0.038
  C  C97  1  0.341100  0.547520  0.805700  1.0  -0.0114
  C  C98  1  0.314900  0.590210  0.818700  1.0  -0.0448
  C  C99  1  0.991100  0.744410  0.871100  1.0  0.7476
  C  C100  1  0.910900  0.742370  0.909200  1.0  -0.1218
  C  C101  1  0.826100  0.770510  0.899200  1.0  -0.0327
  C  C102  1  0.755500  0.768070  0.935400  1.0  -0.0093
  C  C103  1  0.765300  0.738830  0.982300  1.0  0.0262
  C  C104  1  0.853100  0.711850  0.990900  1.0  0.0173
  C  C105  1  0.925400  0.713170  0.955800  1.0  -0.0362
  C  C106  1  0.694700  0.739090  0.025100  1.0  0.0043
  C  C107  1  0.597900  0.717820  0.015500  1.0  -0.0656
  C  C108  1  0.535000  0.717430  0.056000  1.0  -0.0108
  C  C109  1  0.571200  0.736560  0.110300  1.0  -0.1238
  C  C110  1  0.666667  0.757600  0.122900  1.0  -0.0472
  C  C111  1  0.725100  0.759280  0.079800  1.0  -0.0414
  C  C112  1  0.503900  0.734530  0.155100  1.0  0.7497
  C  C113  1  0.042600  0.847410  0.773200  1.0  0.7831
  C  C114  1  0.067000  0.896600  0.771100  1.0  -0.1543
  C  C115  1  0.993400  0.925590  0.741700  1.0  -0.0308
  C  C116  1  0.018200  0.969780  0.736800  1.0  -0.0291
  C  C117  1  0.115900  0.987370  0.760400  1.0  0.0206
  C  C118  1  0.187900  0.956490  0.790000  1.0  -0.0649
  C  C119  1  0.164800  0.912690  0.795600  1.0  -0.01
  C  C120  1  0.958500  0.669810  0.746800  1.0  0.7808
  C  C121  1  0.934600  0.620800  0.743100  1.0  -0.1464
  C  C122  1  0.009400  0.590560  0.768300  1.0  -0.02
  C  C123  1  0.984000  0.545830  0.766900  1.0  -0.0105
  C  C124  1  0.886200  0.529370  0.743200  1.0  0.0581
  C  C125  1  0.811300  0.561590  0.719300  1.0  -0.0678
  C  C126  1  0.835500  0.605840  0.718300  1.0  0.0005
  C  C127  1  0.859500  0.481650  0.748900  1.0  0.0383
  C  C128  1  0.840300  0.465580  0.801400  1.0  -0.0179
  C  C129  1  0.814100  0.422130  0.809500  1.0  -0.04
  C  C130  1  0.805800  0.392380  0.763400  1.0  -0.13
  C  C131  1  0.828000  0.406510  0.710600  1.0  -0.0203
  C  C132  1  0.855300  0.450190  0.704300  1.0  -0.0773
  C  C133  1  0.769400  0.345960  0.770800  1.0  0.7261
  C  C134  1  0.241900  0.166850  0.714900  1.0  0.7216
  C  C135  1  0.202100  0.121440  0.725200  1.0  -0.1319
  C  C136  1  0.184100  0.110600  0.779800  1.0  -0.0047
  C  C137  1  0.152500  0.068260  0.790300  1.0  -0.0549
  C  C138  1  0.143700  0.034080  0.748700  1.0  0.037
  C  C139  1  0.158900  0.047520  0.694300  1.0  -0.0117
  C  C140  1  0.185100  0.090210  0.681300  1.0  -0.0425
  C  C141  1  0.491100  0.755590  0.371100  1.0  0.7478
  C  C142  1  0.410900  0.757630  0.409200  1.0  -0.1216
  C  C143  1  0.326100  0.729490  0.399200  1.0  -0.0324
  C  C144  1  0.255500  0.731930  0.435400  1.0  -0.0099
  C  C145  1  0.265300  0.761170  0.482300  1.0  0.0263
  C  C146  1  0.353100  0.788150  0.490900  1.0  0.0195
  C  C147  1  0.425400  0.786830  0.455800  1.0  -0.0367
  C  C148  1  0.194700  0.760910  0.525100  1.0  0.0041
  C  C149  1  0.097900  0.782180  0.515500  1.0  -0.065
  C  C150  1  0.035000  0.782570  0.556000  1.0  -0.0121
  C  C151  1  0.071200  0.763440  0.610300  1.0  -0.1231
  C  C152  1  0.166700  0.742400  0.622900  1.0  -0.0471
  C  C153  1  0.225100  0.740720  0.579800  1.0  -0.0417
  C  C154  1  0.003900  0.765470  0.655100  1.0  0.7497
  C  C155  1  0.542600  0.652590  0.273200  1.0  0.7827
  C  C156  1  0.567000  0.603400  0.271100  1.0  -0.1536
  C  C157  1  0.493400  0.574410  0.241700  1.0  -0.0318
  C  C158  1  0.518200  0.530220  0.236800  1.0  -0.0293
  C  C159  1  0.615900  0.512630  0.260400  1.0  0.0205
  C  C160  1  0.687900  0.543510  0.290000  1.0  -0.065
  C  C161  1  0.664800  0.587310  0.295600  1.0  -0.0114
  C  C162  1  0.458500  0.830190  0.246800  1.0  0.7807
  C  C163  1  0.434600  0.879200  0.243100  1.0  -0.1473
  C  C164  1  0.509400  0.909440  0.268300  1.0  -0.0194
  C  C165  1  0.484000  0.954170  0.266900  1.0  -0.0101
  C  C166  1  0.386200  0.970630  0.243200  1.0  0.0582
  C  C167  1  0.311300  0.938410  0.219300  1.0  -0.0666
  C  C168  1  0.335500  0.894160  0.218300  1.0  0.0017
  C  C169  1  0.359500  0.018350  0.248900  1.0  0.0385
  C  C170  1  0.340300  0.034420  0.301400  1.0  -0.0176
  C  C171  1  0.314100  0.077870  0.309500  1.0  -0.0384
  C  C172  1  0.305800  0.107620  0.263400  1.0  -0.1297
  C  C173  1  0.328000  0.093490  0.210600  1.0  -0.02
  C  C174  1  0.355300  0.049810  0.204300  1.0  -0.0779
  C  C175  1  0.269400  0.154040  0.270800  1.0  0.7269
  C  C176  1  0.741900  0.333150  0.214900  1.0  0.7191
  C  C177  1  0.702100  0.378560  0.225200  1.0  -0.1329
  C  C178  1  0.684100  0.389400  0.279800  1.0  -0.0046
  C  C179  1  0.652500  0.431740  0.290300  1.0  -0.0545
  C  C180  1  0.643700  0.465920  0.248700  1.0  0.0369
  C  C181  1  0.658900  0.452480  0.194300  1.0  -0.0105
  C  C182  1  0.685100  0.409790  0.181300  1.0  -0.0408
  C  C183  1  0.008900  0.255590  0.128900  1.0  0.7494
  C  C184  1  0.089100  0.257630  0.090800  1.0  -0.1206
  C  C185  1  0.173900  0.229490  0.100800  1.0  -0.0325
  C  C186  1  0.244500  0.231930  0.064600  1.0  -0.0108
  C  C187  1  0.234700  0.261170  0.017700  1.0  0.0266
  C  C188  1  0.146900  0.288150  0.009100  1.0  0.0196
  C  C189  1  0.074600  0.286830  0.044200  1.0  -0.0379
  C  C190  1  0.305300  0.260910  0.974900  1.0  0.0044
  C  C191  1  0.402100  0.282180  0.984500  1.0  -0.0656
  C  C192  1  0.465000  0.282570  0.944000  1.0  -0.011
  C  C193  1  0.428800  0.263440  0.889700  1.0  -0.1243
  C  C194  1  0.333333  0.242400  0.877100  1.0  -0.0473
  C  C195  1  0.274900  0.240720  0.920200  1.0  -0.0418
  C  C196  1  0.496100  0.265470  0.844900  1.0  0.7508
  C  C197  1  0.957400  0.152590  0.226800  1.0  0.7821
  C  C198  1  0.933000  0.103400  0.228900  1.0  -0.1531
  C  C199  1  0.006600  0.074410  0.258300  1.0  -0.0325
  C  C200  1  0.981800  0.030220  0.263200  1.0  -0.0301
  C  C201  1  0.884100  0.012630  0.239600  1.0  0.0208
  C  C202  1  0.812100  0.043510  0.210000  1.0  -0.0659
  C  C203  1  0.835200  0.087310  0.204400  1.0  -0.0078
  C  C204  1  0.041500  0.330190  0.253200  1.0  0.7813
  C  C205  1  0.065400  0.379200  0.256900  1.0  -0.1469
  C  C206  1  0.990600  0.409440  0.231700  1.0  -0.0194
  C  C207  1  0.016000  0.454170  0.233100  1.0  -0.0095
  C  C208  1  0.113800  0.470630  0.256800  1.0  0.0582
  C  C209  1  0.188700  0.438410  0.280700  1.0  -0.0671
  C  C210  1  0.164500  0.394160  0.281700  1.0  -0.0005
  C  C211  1  0.140500  0.518350  0.251100  1.0  0.0376
  C  C212  1  0.159700  0.534420  0.198600  1.0  -0.0182
  C  C213  1  0.185900  0.577870  0.190500  1.0  -0.0341
  C  C214  1  0.194200  0.607620  0.236600  1.0  -0.129
  C  C215  1  0.172000  0.593490  0.289400  1.0  -0.0182
  C  C216  1  0.144700  0.549810  0.295700  1.0  -0.0781
  C  C217  1  0.230600  0.654040  0.229200  1.0  0.7271
  C  C218  1  0.758100  0.833150  0.285100  1.0  0.7201
  C  C219  1  0.797900  0.878560  0.274800  1.0  -0.1329
  C  C220  1  0.815900  0.889400  0.220200  1.0  -0.0053
  C  C221  1  0.847500  0.931740  0.209700  1.0  -0.0551
  C  C222  1  0.856300  0.965920  0.251300  1.0  0.0379
  C  C223  1  0.841100  0.952480  0.305700  1.0  -0.0118
  C  C224  1  0.814900  0.909790  0.318700  1.0  -0.0459
  N  N225  1  0.831400  0.299530  0.575900  1.0  0.6377
  N  N226  1  0.627300  0.181790  0.458600  1.0  0.6532
  N  N227  1  0.941100  0.194190  0.539800  1.0  0.6407
  N  N228  1  0.676400  0.284090  0.405600  1.0  0.6336
  N  N229  1  0.563000  0.497910  0.798400  1.0  0.5911
  N  N230  1  0.205900  0.470530  0.682600  1.0  0.6513
  N  N231  1  0.432900  0.015930  0.703000  1.0  0.6048
  N  N232  1  0.798000  0.049060  0.801200  1.0  0.648
  N  N233  1  0.654500  0.995270  0.647700  1.0  0.6137
  N  N234  1  0.619300  0.962670  0.851900  1.0  0.6464
  N  N235  1  0.354600  0.515250  0.854900  1.0  0.6162
  N  N236  1  0.371100  0.560350  0.651900  1.0  0.6562
  N  N237  1  0.668600  0.799530  0.924100  1.0  0.6372
  N  N238  1  0.872700  0.681790  0.041400  1.0  0.6559
  N  N239  1  0.558900  0.694190  0.960200  1.0  0.6391
  N  N240  1  0.823600  0.784090  0.094400  1.0  0.6346
  N  N241  1  0.937000  0.997910  0.701600  1.0  0.5921
  N  N242  1  0.294100  0.970530  0.817400  1.0  0.65
  N  N243  1  0.067100  0.515930  0.797000  1.0  0.6049
  N  N244  1  0.702000  0.549060  0.698800  1.0  0.648
  N  N245  1  0.845500  0.495270  0.852300  1.0  0.6144
  N  N246  1  0.880700  0.462670  0.648100  1.0  0.6435
  N  N247  1  0.145400  0.015250  0.645100  1.0  0.6106
  N  N248  1  0.128900  0.060350  0.848100  1.0  0.6544
  N  N249  1  0.168600  0.700470  0.424100  1.0  0.6329
  N  N250  1  0.372700  0.818210  0.541400  1.0  0.6573
  N  N251  1  0.058900  0.805810  0.460200  1.0  0.6416
  N  N252  1  0.323600  0.715910  0.594400  1.0  0.6345
  N  N253  1  0.437000  0.502090  0.201600  1.0  0.5941
  N  N254  1  0.794100  0.529470  0.317400  1.0  0.6499
  N  N255  1  0.567100  0.984070  0.297000  1.0  0.6046
  N  N256  1  0.202000  0.950940  0.198800  1.0  0.6479
  N  N257  1  0.345500  0.004730  0.352300  1.0  0.6163
  N  N258  1  0.380700  0.037330  0.148100  1.0  0.6437
  N  N259  1  0.645400  0.484750  0.145100  1.0  0.6136
  N  N260  1  0.628900  0.439650  0.348100  1.0  0.6553
  N  N261  1  0.331400  0.200470  0.075900  1.0  0.6355
  N  N262  1  0.127300  0.318210  0.958600  1.0  0.6564
  N  N263  1  0.441100  0.305810  0.039800  1.0  0.6416
  N  N264  1  0.176400  0.215910  0.905600  1.0  0.6336
  N  N265  1  0.063000  0.002090  0.298400  1.0  0.5913
  N  N266  1  0.705900  0.029470  0.182600  1.0  0.6513
  N  N267  1  0.932900  0.484070  0.203000  1.0  0.6045
  N  N268  1  0.298000  0.450940  0.301200  1.0  0.6467
  N  N269  1  0.154500  0.504730  0.147700  1.0  0.6138
  N  N270  1  0.119300  0.537330  0.351900  1.0  0.6463
  N  N271  1  0.854600  0.984750  0.354900  1.0  0.6134
  N  N272  1  0.871100  0.939650  0.151900  1.0  0.6563
  O  O273  1  0.419700  0.230560  0.609160  1.0  -0.6367
  O  O274  1  0.536000  0.260980  0.679690  1.0  -0.7784
  O  O275  1  0.814700  0.336280  0.591800  1.0  -0.4303
  O  O276  1  0.916600  0.286300  0.570400  1.0  -0.3935
  O  O277  1  0.537500  0.177600  0.432800  1.0  -0.327
  O  O278  1  0.697900  0.162120  0.444700  1.0  -0.3316
  O  O279  1  0.635000  0.287340  0.354350  1.0  -0.3378
  O  O280  1  0.642900  0.301200  0.445120  1.0  -0.3374
  O  O281  1  0.877500  0.180400  0.566400  1.0  -0.3055
  O  O282  1  0.032600  0.186400  0.554000  1.0  -0.35
  O  O283  1  0.955000  0.241110  0.291860  1.0  -0.7765
  O  O284  1  0.384400  0.323360  0.701050  1.0  -0.7244
  O  O285  1  0.547300  0.336200  0.751360  1.0  -0.6656
  O  O286  1  0.149900  0.444800  0.653900  1.0  -0.3445
  O  O287  1  0.174200  0.506040  0.694600  1.0  -0.3538
  O  O288  1  0.628000  0.479650  0.836200  1.0  -0.39
  O  O289  1  0.561200  0.537590  0.789200  1.0  -0.402
  O  O290  1  0.607800  0.194200  0.784220  1.0  -0.6982
  O  O291  1  0.459100  0.180510  0.718690  1.0  -0.686
  O  O292  1  0.434500  0.977190  0.718100  1.0  -0.3785
  O  O293  1  0.368000  0.031110  0.663100  1.0  -0.3666
  O  O294  1  0.823100  0.010230  0.797900  1.0  -0.407
  O  O295  1  0.861100  0.078550  0.818200  1.0  -0.4044
  O  O296  1  0.630400  0.978680  0.599220  1.0  -0.3488
  O  O297  1  0.674100  0.034450  0.656680  1.0  -0.3445
  O  O298  1  0.598300  0.933610  0.883000  1.0  -0.322
  O  O299  1  0.620100  0.001520  0.864700  1.0  -0.3095
  O  O300  1  0.749900  0.835370  0.680780  1.0  -0.6401
  O  O301  1  0.223900  0.690260  0.741320  1.0  -0.6587
  O  O302  1  0.257100  0.678710  0.836900  1.0  -0.6445
  O  O303  1  0.393500  0.591510  0.624800  1.0  -0.3338
  O  O304  1  0.372800  0.523360  0.634700  1.0  -0.2988
  O  O305  1  0.387900  0.529690  0.903900  1.0  -0.3346
  O  O306  1  0.330100  0.477000  0.843800  1.0  -0.3476
  O  O307  1  0.090500  0.226440  0.362220  1.0  -0.6008
  O  O308  1  0.744400  0.820600  0.773050  1.0  -0.6484
  O  O309  1  0.080300  0.730560  0.890840  1.0  -0.6371
  O  O310  1  0.964000  0.760980  0.820310  1.0  -0.78
  O  O311  1  0.685300  0.836280  0.908200  1.0  -0.4304
  O  O312  1  0.583400  0.786300  0.929600  1.0  -0.3948
  O  O313  1  0.962500  0.677600  0.067200  1.0  -0.3228
  O  O314  1  0.802100  0.662120  0.055300  1.0  -0.3325
  O  O315  1  0.865000  0.787340  0.145650  1.0  -0.3379
  O  O316  1  0.857100  0.801200  0.054880  1.0  -0.3383
  O  O317  1  0.622500  0.680400  0.933600  1.0  -0.3037
  O  O318  1  0.467400  0.686400  0.946000  1.0  -0.3522
  O  O319  1  0.545000  0.741110  0.208140  1.0  -0.7769
  O  O320  1  0.115600  0.823360  0.798950  1.0  -0.7269
  O  O321  1  0.952700  0.836200  0.748640  1.0  -0.6648
  O  O322  1  0.350100  0.944800  0.846100  1.0  -0.3439
  O  O323  1  0.325800  0.006040  0.805400  1.0  -0.3523
  O  O324  1  0.872000  0.979650  0.663800  1.0  -0.3913
  O  O325  1  0.938800  0.037590  0.710800  1.0  -0.4005
  O  O326  1  0.892200  0.694200  0.715780  1.0  -0.6962
  O  O327  1  0.040900  0.680510  0.781310  1.0  -0.6865
  O  O328  1  0.065500  0.477190  0.781900  1.0  -0.3779
  O  O329  1  0.132000  0.531110  0.836900  1.0  -0.3649
  O  O330  1  0.676900  0.510230  0.702100  1.0  -0.4062
  O  O331  1  0.638900  0.578550  0.681800  1.0  -0.406
  O  O332  1  0.869600  0.478680  0.900780  1.0  -0.3461
  O  O333  1  0.825900  0.534450  0.843320  1.0  -0.3426
  O  O334  1  0.901700  0.433610  0.617000  1.0  -0.3238
  O  O335  1  0.879900  0.501520  0.635300  1.0  -0.3128
  O  O336  1  0.750100  0.335370  0.819220  1.0  -0.6392
  O  O337  1  0.276100  0.190260  0.758680  1.0  -0.66
  O  O338  1  0.242900  0.178710  0.663100  1.0  -0.6469
  O  O339  1  0.106500  0.091510  0.875200  1.0  -0.3316
  O  O340  1  0.127200  0.023360  0.865300  1.0  -0.2976
  O  O341  1  0.112100  0.029690  0.596100  1.0  -0.3389
  O  O342  1  0.169900  0.977000  0.656200  1.0  -0.3491
  O  O343  1  0.409500  0.726440  0.137780  1.0  -0.6024
  O  O344  1  0.755600  0.320600  0.726950  1.0  -0.6488
  O  O345  1  0.580300  0.769440  0.390840  1.0  -0.6375
  O  O346  1  0.464000  0.739020  0.320310  1.0  -0.7805
  O  O347  1  0.185300  0.663720  0.408200  1.0  -0.4308
  O  O348  1  0.083400  0.713700  0.429600  1.0  -0.393
  O  O349  1  0.462500  0.822400  0.567200  1.0  -0.3228
  O  O350  1  0.302100  0.837880  0.555300  1.0  -0.331
  O  O351  1  0.365000  0.712660  0.645650  1.0  -0.3379
  O  O352  1  0.357100  0.698800  0.554880  1.0  -0.3383
  O  O353  1  0.122500  0.819600  0.433600  1.0  -0.305
  O  O354  1  0.967400  0.813600  0.446000  1.0  -0.3531
  O  O355  1  0.045000  0.758890  0.708140  1.0  -0.7766
  O  O356  1  0.615600  0.676640  0.298950  1.0  -0.7302
  O  O357  1  0.452700  0.663800  0.248640  1.0  -0.6649
  O  O358  1  0.850100  0.555200  0.346100  1.0  -0.3433
  O  O359  1  0.825800  0.493960  0.305400  1.0  -0.352
  O  O360  1  0.372000  0.520350  0.163800  1.0  -0.3912
  O  O361  1  0.438800  0.462410  0.210800  1.0  -0.4021
  O  O362  1  0.392200  0.805800  0.215780  1.0  -0.6999
  O  O363  1  0.540900  0.819490  0.281310  1.0  -0.6862
  O  O364  1  0.565500  0.022810  0.281900  1.0  -0.3793
  O  O365  1  0.632000  0.968890  0.336900  1.0  -0.3652
  O  O366  1  0.176900  0.989770  0.202100  1.0  -0.4074
  O  O367  1  0.138900  0.921450  0.181800  1.0  -0.4046
  O  O368  1  0.369600  0.021320  0.400780  1.0  -0.3457
  O  O369  1  0.325900  0.965550  0.343320  1.0  -0.3452
  O  O370  1  0.401700  0.066390  0.117000  1.0  -0.3245
  O  O371  1  0.379900  0.998480  0.135300  1.0  -0.3133
  O  O372  1  0.250100  0.164630  0.319220  1.0  -0.6385
  O  O373  1  0.776100  0.309740  0.258680  1.0  -0.6597
  O  O374  1  0.742900  0.321290  0.163100  1.0  -0.6461
  O  O375  1  0.606500  0.408490  0.375200  1.0  -0.3305
  O  O376  1  0.627200  0.476640  0.365300  1.0  -0.2982
  O  O377  1  0.612100  0.470310  0.096100  1.0  -0.3389
  O  O378  1  0.669900  0.523000  0.156200  1.0  -0.3493
  O  O379  1  0.909500  0.773560  0.637780  1.0  -0.602
  O  O380  1  0.255600  0.179400  0.226950  1.0  -0.6479
  O  O381  1  0.919700  0.269440  0.109160  1.0  -0.6368
  O  O382  1  0.036000  0.239020  0.179690  1.0  -0.7787
  O  O383  1  0.314700  0.163720  0.091800  1.0  -0.4313
  O  O384  1  0.416600  0.213700  0.070400  1.0  -0.3951
  O  O385  1  0.037500  0.322400  0.932800  1.0  -0.3279
  O  O386  1  0.197900  0.337880  0.944700  1.0  -0.3328
  O  O387  1  0.135000  0.212660  0.854350  1.0  -0.3379
  O  O388  1  0.142900  0.198800  0.945120  1.0  -0.3366
  O  O389  1  0.377500  0.319600  0.066400  1.0  -0.305
  O  O390  1  0.532600  0.313600  0.054000  1.0  -0.3488
  O  O391  1  0.455000  0.258890  0.791860  1.0  -0.7762
  O  O392  1  0.884400  0.176640  0.201050  1.0  -0.726
  O  O393  1  0.047300  0.163800  0.251360  1.0  -0.6662
  O  O394  1  0.649900  0.055200  0.153900  1.0  -0.3449
  O  O395  1  0.674200  0.993960  0.194600  1.0  -0.3522
  O  O396  1  0.128000  0.020350  0.336200  1.0  -0.3905
  O  O397  1  0.061200  0.962410  0.289200  1.0  -0.4033
  O  O398  1  0.107800  0.305800  0.284220  1.0  -0.7009
  O  O399  1  0.959100  0.319490  0.218690  1.0  -0.6858
  O  O400  1  0.934500  0.522810  0.218100  1.0  -0.3788
  O  O401  1  0.868000  0.468890  0.163100  1.0  -0.3671
  O  O402  1  0.323100  0.489770  0.297900  1.0  -0.407
  O  O403  1  0.361100  0.421450  0.318200  1.0  -0.4057
  O  O404  1  0.130400  0.521320  0.099220  1.0  -0.3482
  O  O405  1  0.174100  0.465550  0.156680  1.0  -0.345
  O  O406  1  0.098300  0.566390  0.383000  1.0  -0.3226
  O  O407  1  0.120100  0.498480  0.364700  1.0  -0.3107
  O  O408  1  0.249900  0.664630  0.180780  1.0  -0.6406
  O  O409  1  0.723900  0.809740  0.241320  1.0  -0.6598
  O  O410  1  0.757100  0.821290  0.336900  1.0  -0.6455
  O  O411  1  0.893500  0.908490  0.124800  1.0  -0.3319
  O  O412  1  0.872800  0.976640  0.134700  1.0  -0.2988
  O  O413  1  0.887900  0.970310  0.403900  1.0  -0.3342
  O  O414  1  0.830100  0.023000  0.343800  1.0  -0.347
  O  O415  1  0.590500  0.273560  0.862220  1.0  -0.6009
  O  O416  1  0.244400  0.679400  0.273050  1.0  -0.6494
