# generated using pymatgen
data_GdH6C21(NO3)6
_symmetry_space_group_name_H-M   'P 1'
_cell_length_a   25.46600000
_cell_length_b   14.96100000
_cell_length_c   26.14000000
_cell_angle_alpha   90.00000000
_cell_angle_beta   94.84200000
_cell_angle_gamma   90.00000000
_symmetry_Int_Tables_number   1
_chemical_formula_structural   GdH6C21(NO3)6
_chemical_formula_sum   'Gd8 H48 C168 N48 O144'
_cell_volume   9923.71495763
_cell_formula_units_Z   8
loop_
 _symmetry_equiv_pos_site_id
 _symmetry_equiv_pos_as_xyz
  1  'x, y, z'
loop_
 _atom_site_type_symbol
 _atom_site_label
 _atom_site_symmetry_multiplicity
 _atom_site_fract_x
 _atom_site_fract_y
 _atom_site_fract_z
 _atom_site_occupancy
 _atom_site_charge
  Gd  Gd1  1  0.348240  0.263710  0.006580  1.0  1.9247
  Gd  Gd2  1  0.848240  0.763710  0.006580  1.0  1.9247
  Gd  Gd3  1  0.651760  0.263710  0.493420  1.0  1.9234
  Gd  Gd4  1  0.151760  0.763710  0.493420  1.0  1.9234
  Gd  Gd5  1  0.651760  0.736290  0.993420  1.0  1.9236
  Gd  Gd6  1  0.151760  0.236290  0.993420  1.0  1.9236
  Gd  Gd7  1  0.348240  0.736290  0.506580  1.0  1.9247
  Gd  Gd8  1  0.848240  0.236290  0.506580  1.0  1.9247
  H  H9  1  0.187800  0.311400  0.828900  1.0  0.1482
  H  H10  1  0.329400  0.401800  0.888900  1.0  0.1586
  H  H11  1  0.275400  0.611600  0.637100  1.0  0.1362
  H  H12  1  0.358900  0.389000  0.619600  1.0  0.1445
  H  H13  1  0.378000  0.092700  0.801000  1.0  0.1388
  H  H14  1  0.449700  0.293700  0.878900  1.0  0.1476
  H  H15  1  0.687800  0.811400  0.828900  1.0  0.1482
  H  H16  1  0.829400  0.901800  0.888900  1.0  0.1586
  H  H17  1  0.775400  0.111600  0.637100  1.0  0.1362
  H  H18  1  0.858900  0.889000  0.619600  1.0  0.1445
  H  H19  1  0.878000  0.592700  0.801000  1.0  0.1388
  H  H20  1  0.949700  0.793700  0.878900  1.0  0.1457
  H  H21  1  0.812200  0.311400  0.671100  1.0  0.1479
  H  H22  1  0.670600  0.401800  0.611100  1.0  0.159
  H  H23  1  0.724600  0.611600  0.862900  1.0  0.1352
  H  H24  1  0.641100  0.389000  0.880400  1.0  0.1442
  H  H25  1  0.622000  0.092700  0.699000  1.0  0.1382
  H  H26  1  0.550300  0.293700  0.621100  1.0  0.1479
  H  H27  1  0.312200  0.811400  0.671100  1.0  0.1479
  H  H28  1  0.170600  0.901800  0.611100  1.0  0.159
  H  H29  1  0.224600  0.111600  0.862900  1.0  0.1352
  H  H30  1  0.141100  0.889000  0.880400  1.0  0.1442
  H  H31  1  0.122000  0.592700  0.699000  1.0  0.1382
  H  H32  1  0.050300  0.793700  0.621100  1.0  0.1479
  H  H33  1  0.812200  0.688600  0.171100  1.0  0.148
  H  H34  1  0.670600  0.598200  0.111100  1.0  0.1591
  H  H35  1  0.724600  0.388400  0.362900  1.0  0.1366
  H  H36  1  0.641100  0.611000  0.380400  1.0  0.1448
  H  H37  1  0.622000  0.907300  0.199000  1.0  0.1392
  H  H38  1  0.550300  0.706300  0.121100  1.0  0.1473
  H  H39  1  0.312200  0.188600  0.171100  1.0  0.148
  H  H40  1  0.170600  0.098200  0.111100  1.0  0.1591
  H  H41  1  0.224600  0.888400  0.362900  1.0  0.1366
  H  H42  1  0.141100  0.111000  0.380400  1.0  0.1448
  H  H43  1  0.122000  0.407300  0.199000  1.0  0.1392
  H  H44  1  0.050300  0.206300  0.121100  1.0  0.1454
  H  H45  1  0.187800  0.688600  0.328900  1.0  0.1479
  H  H46  1  0.329400  0.598200  0.388900  1.0  0.1594
  H  H47  1  0.275400  0.388400  0.137100  1.0  0.1344
  H  H48  1  0.358900  0.611000  0.119600  1.0  0.1445
  H  H49  1  0.378000  0.907300  0.301000  1.0  0.1386
  H  H50  1  0.449700  0.706300  0.378900  1.0  0.1472
  H  H51  1  0.687800  0.188600  0.328900  1.0  0.1479
  H  H52  1  0.829400  0.098200  0.388900  1.0  0.1594
  H  H53  1  0.775400  0.888400  0.137100  1.0  0.1344
  H  H54  1  0.858900  0.111000  0.119600  1.0  0.1445
  H  H55  1  0.878000  0.407300  0.301000  1.0  0.1386
  H  H56  1  0.949700  0.206300  0.378900  1.0  0.1472
  C  C57  1  0.243200  0.319700  0.920100  1.0  0.7585
  C  C58  1  0.255500  0.351500  0.868300  1.0  -0.1116
  C  C59  1  0.220100  0.338700  0.825200  1.0  -0.0108
  C  C60  1  0.232200  0.365900  0.777300  1.0  -0.0088
  C  C61  1  0.278000  0.412400  0.768500  1.0  0.0275
  C  C62  1  0.312100  0.424900  0.812500  1.0  0.0328
  C  C63  1  0.303900  0.394300  0.861600  1.0  -0.0309
  C  C64  1  0.291800  0.441300  0.715600  1.0  0.0344
  C  C65  1  0.273800  0.524500  0.694600  1.0  0.0676
  C  C66  1  0.287300  0.555800  0.648800  1.0  -0.0349
  C  C67  1  0.318200  0.506100  0.619800  1.0  -0.0878
  C  C68  1  0.337100  0.423300  0.638600  1.0  0.0073
  C  C69  1  0.323200  0.393200  0.685500  1.0  -0.0154
  C  C70  1  0.334700  0.538400  0.567900  1.0  0.7004
  C  C71  1  0.369100  0.182500  0.887400  1.0  0.7147
  C  C72  1  0.407800  0.191300  0.845900  1.0  -0.1046
  C  C73  1  0.404200  0.136100  0.804300  1.0  -0.0205
  C  C74  1  0.439300  0.144200  0.766800  1.0  0.0305
  C  C75  1  0.480100  0.206500  0.769600  1.0  0.0668
  C  C76  1  0.482500  0.262700  0.813100  1.0  -0.035
  C  C77  1  0.447000  0.255500  0.850700  1.0  -0.0117
  C  C78  1  0.743200  0.819700  0.920100  1.0  0.7585
  C  C79  1  0.755500  0.851500  0.868300  1.0  -0.1116
  C  C80  1  0.720100  0.838700  0.825200  1.0  -0.0108
  C  C81  1  0.732200  0.865900  0.777300  1.0  -0.0088
  C  C82  1  0.778000  0.912400  0.768500  1.0  0.0275
  C  C83  1  0.812100  0.924900  0.812500  1.0  0.0328
  C  C84  1  0.803900  0.894300  0.861600  1.0  -0.0309
  C  C85  1  0.791800  0.941300  0.715600  1.0  0.0344
  C  C86  1  0.773800  0.024500  0.694600  1.0  0.0676
  C  C87  1  0.787300  0.055800  0.648800  1.0  -0.0349
  C  C88  1  0.818200  0.006100  0.619800  1.0  -0.0878
  C  C89  1  0.837100  0.923300  0.638600  1.0  0.0073
  C  C90  1  0.823200  0.893200  0.685500  1.0  -0.0154
  C  C91  1  0.834700  0.038400  0.567900  1.0  0.7004
  C  C92  1  0.869100  0.682500  0.887400  1.0  0.7147
  C  C93  1  0.907800  0.691300  0.845900  1.0  -0.1046
  C  C94  1  0.904200  0.636100  0.804300  1.0  -0.0205
  C  C95  1  0.939300  0.644200  0.766800  1.0  0.0305
  C  C96  1  0.980100  0.706500  0.769600  1.0  0.0668
  C  C97  1  0.982500  0.762700  0.813100  1.0  -0.035
  C  C98  1  0.947000  0.755500  0.850700  1.0  -0.0117
  C  C99  1  0.756800  0.319700  0.579900  1.0  0.7602
  C  C100  1  0.744500  0.351500  0.631700  1.0  -0.1108
  C  C101  1  0.779900  0.338700  0.674800  1.0  -0.0103
  C  C102  1  0.767800  0.365900  0.722700  1.0  -0.0067
  C  C103  1  0.722000  0.412400  0.731500  1.0  0.0279
  C  C104  1  0.687900  0.424900  0.687500  1.0  0.0313
  C  C105  1  0.696100  0.394300  0.638400  1.0  -0.0329
  C  C106  1  0.708200  0.441300  0.784400  1.0  0.035
  C  C107  1  0.726200  0.524500  0.805400  1.0  0.0675
  C  C108  1  0.712700  0.555800  0.851200  1.0  -0.0343
  C  C109  1  0.681800  0.506100  0.880200  1.0  -0.0863
  C  C110  1  0.662900  0.423300  0.861400  1.0  0.0048
  C  C111  1  0.676800  0.393200  0.814500  1.0  -0.017
  C  C112  1  0.665300  0.538400  0.932100  1.0  0.6975
  C  C113  1  0.630900  0.182500  0.612600  1.0  0.7167
  C  C114  1  0.592200  0.191300  0.654100  1.0  -0.1084
  C  C115  1  0.595800  0.136100  0.695700  1.0  -0.0194
  C  C116  1  0.560700  0.144200  0.733200  1.0  0.0305
  C  C117  1  0.519900  0.206500  0.730400  1.0  0.0676
  C  C118  1  0.517500  0.262700  0.686900  1.0  -0.0336
  C  C119  1  0.553000  0.255500  0.649300  1.0  -0.0083
  C  C120  1  0.256800  0.819700  0.579900  1.0  0.7602
  C  C121  1  0.244500  0.851500  0.631700  1.0  -0.1108
  C  C122  1  0.279900  0.838700  0.674800  1.0  -0.0103
  C  C123  1  0.267800  0.865900  0.722700  1.0  -0.0067
  C  C124  1  0.222000  0.912400  0.731500  1.0  0.0279
  C  C125  1  0.187900  0.924900  0.687500  1.0  0.0313
  C  C126  1  0.196100  0.894300  0.638400  1.0  -0.0329
  C  C127  1  0.208200  0.941300  0.784400  1.0  0.035
  C  C128  1  0.226200  0.024500  0.805400  1.0  0.0675
  C  C129  1  0.212700  0.055800  0.851200  1.0  -0.0343
  C  C130  1  0.181800  0.006100  0.880200  1.0  -0.0863
  C  C131  1  0.162900  0.923300  0.861400  1.0  0.0048
  C  C132  1  0.176800  0.893200  0.814500  1.0  -0.017
  C  C133  1  0.165300  0.038400  0.932100  1.0  0.6975
  C  C134  1  0.130900  0.682500  0.612600  1.0  0.7167
  C  C135  1  0.092200  0.691300  0.654100  1.0  -0.1084
  C  C136  1  0.095800  0.636100  0.695700  1.0  -0.0194
  C  C137  1  0.060700  0.644200  0.733200  1.0  0.0305
  C  C138  1  0.019900  0.706500  0.730400  1.0  0.0676
  C  C139  1  0.017500  0.762700  0.686900  1.0  -0.0336
  C  C140  1  0.053000  0.755500  0.649300  1.0  -0.0083
  C  C141  1  0.756800  0.680300  0.079900  1.0  0.7591
  C  C142  1  0.744500  0.648500  0.131700  1.0  -0.1125
  C  C143  1  0.779900  0.661300  0.174800  1.0  -0.0105
  C  C144  1  0.767800  0.634100  0.222700  1.0  -0.0066
  C  C145  1  0.722000  0.587600  0.231500  1.0  0.0279
  C  C146  1  0.687900  0.575100  0.187500  1.0  0.0319
  C  C147  1  0.696100  0.605700  0.138400  1.0  -0.0342
  C  C148  1  0.708200  0.558700  0.284400  1.0  0.0352
  C  C149  1  0.726200  0.475500  0.305400  1.0  0.0681
  C  C150  1  0.712700  0.444200  0.351200  1.0  -0.0333
  C  C151  1  0.681800  0.493900  0.380200  1.0  -0.086
  C  C152  1  0.662900  0.576700  0.361400  1.0  0.0046
  C  C153  1  0.676800  0.606800  0.314500  1.0  -0.0172
  C  C154  1  0.665300  0.461600  0.432100  1.0  0.6974
  C  C155  1  0.630900  0.817500  0.112600  1.0  0.7179
  C  C156  1  0.592200  0.808700  0.154100  1.0  -0.1083
  C  C157  1  0.595800  0.863900  0.195700  1.0  -0.0196
  C  C158  1  0.560700  0.855800  0.233200  1.0  0.0316
  C  C159  1  0.519900  0.793500  0.230400  1.0  0.067
  C  C160  1  0.517500  0.737300  0.186900  1.0  -0.0341
  C  C161  1  0.553000  0.744500  0.149300  1.0  -0.0073
  C  C162  1  0.256800  0.180300  0.079900  1.0  0.7591
  C  C163  1  0.244500  0.148500  0.131700  1.0  -0.1125
  C  C164  1  0.279900  0.161300  0.174800  1.0  -0.0105
  C  C165  1  0.267800  0.134100  0.222700  1.0  -0.0066
  C  C166  1  0.222000  0.087600  0.231500  1.0  0.0279
  C  C167  1  0.187900  0.075100  0.187500  1.0  0.0319
  C  C168  1  0.196100  0.105700  0.138400  1.0  -0.0342
  C  C169  1  0.208200  0.058700  0.284400  1.0  0.0352
  C  C170  1  0.226200  0.975500  0.305400  1.0  0.0681
  C  C171  1  0.212700  0.944200  0.351200  1.0  -0.0333
  C  C172  1  0.181800  0.993900  0.380200  1.0  -0.086
  C  C173  1  0.162900  0.076700  0.361400  1.0  0.0046
  C  C174  1  0.176800  0.106800  0.314500  1.0  -0.0172
  C  C175  1  0.165300  0.961600  0.432100  1.0  0.6974
  C  C176  1  0.130900  0.317500  0.112600  1.0  0.7179
  C  C177  1  0.092200  0.308700  0.154100  1.0  -0.1083
  C  C178  1  0.095800  0.363900  0.195700  1.0  -0.0196
  C  C179  1  0.060700  0.355800  0.233200  1.0  0.0316
  C  C180  1  0.019900  0.293500  0.230400  1.0  0.067
  C  C181  1  0.017500  0.237300  0.186900  1.0  -0.0341
  C  C182  1  0.053000  0.244500  0.149300  1.0  -0.0073
  C  C183  1  0.243200  0.680300  0.420100  1.0  0.758
  C  C184  1  0.255500  0.648500  0.368300  1.0  -0.1128
  C  C185  1  0.220100  0.661300  0.325200  1.0  -0.0107
  C  C186  1  0.232200  0.634100  0.277300  1.0  -0.009
  C  C187  1  0.278000  0.587600  0.268500  1.0  0.0275
  C  C188  1  0.312100  0.575100  0.312500  1.0  0.0323
  C  C189  1  0.303900  0.605700  0.361600  1.0  -0.0344
  C  C190  1  0.291800  0.558700  0.215600  1.0  0.0345
  C  C191  1  0.273800  0.475500  0.194600  1.0  0.0681
  C  C192  1  0.287300  0.444200  0.148800  1.0  -0.0343
  C  C193  1  0.318200  0.493900  0.119800  1.0  -0.0882
  C  C194  1  0.337100  0.576700  0.138600  1.0  0.0062
  C  C195  1  0.323200  0.606800  0.185500  1.0  -0.0155
  C  C196  1  0.334700  0.461600  0.067900  1.0  0.6994
  C  C197  1  0.369100  0.817500  0.387400  1.0  0.7143
  C  C198  1  0.407800  0.808700  0.345900  1.0  -0.1036
  C  C199  1  0.404200  0.863900  0.304300  1.0  -0.0224
  C  C200  1  0.439300  0.855800  0.266800  1.0  0.0314
  C  C201  1  0.480100  0.793500  0.269600  1.0  0.0671
  C  C202  1  0.482500  0.737300  0.313100  1.0  -0.0343
  C  C203  1  0.447000  0.744500  0.350700  1.0  -0.0112
  C  C204  1  0.743200  0.180300  0.420100  1.0  0.758
  C  C205  1  0.755500  0.148500  0.368300  1.0  -0.1128
  C  C206  1  0.720100  0.161300  0.325200  1.0  -0.0107
  C  C207  1  0.732200  0.134100  0.277300  1.0  -0.009
  C  C208  1  0.778000  0.087600  0.268500  1.0  0.0275
  C  C209  1  0.812100  0.075100  0.312500  1.0  0.0323
  C  C210  1  0.803900  0.105700  0.361600  1.0  -0.0344
  C  C211  1  0.791800  0.058700  0.215600  1.0  0.0345
  C  C212  1  0.773800  0.975500  0.194600  1.0  0.0681
  C  C213  1  0.787300  0.944200  0.148800  1.0  -0.0343
  C  C214  1  0.818200  0.993900  0.119800  1.0  -0.0882
  C  C215  1  0.837100  0.076700  0.138600  1.0  0.0062
  C  C216  1  0.823200  0.106800  0.185500  1.0  -0.0155
  C  C217  1  0.834700  0.961600  0.067900  1.0  0.6994
  C  C218  1  0.869100  0.317500  0.387400  1.0  0.7143
  C  C219  1  0.907800  0.308700  0.345900  1.0  -0.1036
  C  C220  1  0.904200  0.363900  0.304300  1.0  -0.0224
  C  C221  1  0.939300  0.355800  0.266800  1.0  0.0314
  C  C222  1  0.980100  0.293500  0.269600  1.0  0.0671
  C  C223  1  0.982500  0.237300  0.313100  1.0  -0.0343
  C  C224  1  0.947000  0.244500  0.350700  1.0  -0.0112
  N  N225  1  0.362700  0.472000  0.808200  1.0  0.6632
  N  N226  1  0.192700  0.344900  0.734700  1.0  0.649
  N  N227  1  0.239800  0.581800  0.724100  1.0  0.6341
  N  N228  1  0.343200  0.301100  0.700800  1.0  0.5916
  N  N229  1  0.524800  0.328600  0.822800  1.0  0.6441
  N  N230  1  0.431700  0.084900  0.722000  1.0  0.6478
  N  N231  1  0.862700  0.972000  0.808200  1.0  0.6632
  N  N232  1  0.692700  0.844900  0.734700  1.0  0.649
  N  N233  1  0.739800  0.081800  0.724100  1.0  0.6341
  N  N234  1  0.843200  0.801100  0.700800  1.0  0.5916
  N  N235  1  0.024800  0.828600  0.822800  1.0  0.6441
  N  N236  1  0.931700  0.584900  0.722000  1.0  0.6478
  N  N237  1  0.637300  0.472000  0.691800  1.0  0.6635
  N  N238  1  0.807300  0.344900  0.765300  1.0  0.6441
  N  N239  1  0.760200  0.581800  0.775900  1.0  0.6358
  N  N240  1  0.656800  0.301100  0.799200  1.0  0.5908
  N  N241  1  0.475200  0.328600  0.677200  1.0  0.6453
  N  N242  1  0.568300  0.084900  0.778000  1.0  0.647
  N  N243  1  0.137300  0.972000  0.691800  1.0  0.6635
  N  N244  1  0.307300  0.844900  0.765300  1.0  0.6441
  N  N245  1  0.260200  0.081800  0.775900  1.0  0.6358
  N  N246  1  0.156800  0.801100  0.799200  1.0  0.5908
  N  N247  1  0.975200  0.828600  0.677200  1.0  0.6453
  N  N248  1  0.068300  0.584900  0.778000  1.0  0.647
  N  N249  1  0.637300  0.528000  0.191800  1.0  0.66
  N  N250  1  0.807300  0.655100  0.265300  1.0  0.6445
  N  N251  1  0.760200  0.418200  0.275900  1.0  0.6356
  N  N252  1  0.656800  0.698900  0.299200  1.0  0.5913
  N  N253  1  0.475200  0.671400  0.177200  1.0  0.6437
  N  N254  1  0.568300  0.915100  0.278000  1.0  0.6479
  N  N255  1  0.137300  0.028000  0.191800  1.0  0.66
  N  N256  1  0.307300  0.155100  0.265300  1.0  0.6445
  N  N257  1  0.260200  0.918200  0.275900  1.0  0.6356
  N  N258  1  0.156800  0.198900  0.299200  1.0  0.5913
  N  N259  1  0.975200  0.171400  0.177200  1.0  0.6437
  N  N260  1  0.068300  0.415100  0.278000  1.0  0.6479
  N  N261  1  0.362700  0.528000  0.308200  1.0  0.6622
  N  N262  1  0.192700  0.655100  0.234700  1.0  0.6484
  N  N263  1  0.239800  0.418200  0.224100  1.0  0.6354
  N  N264  1  0.343200  0.698900  0.200800  1.0  0.592
  N  N265  1  0.524800  0.671400  0.322800  1.0  0.644
  N  N266  1  0.431700  0.915100  0.222000  1.0  0.6502
  N  N267  1  0.862700  0.028000  0.308200  1.0  0.6622
  N  N268  1  0.692700  0.155100  0.234700  1.0  0.6484
  N  N269  1  0.739800  0.918200  0.224100  1.0  0.6354
  N  N270  1  0.843200  0.198900  0.200800  1.0  0.592
  N  N271  1  0.024800  0.171400  0.322800  1.0  0.644
  N  N272  1  0.931700  0.415100  0.222000  1.0  0.6502
  O  O273  1  0.277800  0.320100  0.955500  1.0  -0.6894
  O  O274  1  0.195800  0.291900  0.923700  1.0  -0.7016
  O  O275  1  0.401000  0.447100  0.837000  1.0  -0.4024
  O  O276  1  0.363300  0.533600  0.778100  1.0  -0.3861
  O  O277  1  0.148600  0.320700  0.743900  1.0  -0.3598
  O  O278  1  0.206500  0.345400  0.690100  1.0  -0.4241
  O  O279  1  0.346300  0.287500  0.746700  1.0  -0.3716
  O  O280  1  0.356300  0.250800  0.668200  1.0  -0.4118
  O  O281  1  0.204600  0.546200  0.744500  1.0  -0.428
  O  O282  1  0.251300  0.662400  0.725500  1.0  -0.4284
  O  O283  1  0.368700  0.492300  0.548600  1.0  -0.4795
  O  O284  1  0.314300  0.608800  0.550600  1.0  -0.6564
  O  O285  1  0.378200  0.230400  0.926000  1.0  -0.7657
  O  O286  1  0.332100  0.129800  0.879000  1.0  -0.4971
  O  O287  1  0.534200  0.356900  0.865200  1.0  -0.4039
  O  O288  1  0.548400  0.352600  0.785900  1.0  -0.3951
  O  O289  1  0.412100  0.012100  0.729800  1.0  -0.3763
  O  O290  1  0.443100  0.111600  0.680200  1.0  -0.4118
  O  O291  1  0.777800  0.820100  0.955500  1.0  -0.6894
  O  O292  1  0.695800  0.791900  0.923700  1.0  -0.7016
  O  O293  1  0.901000  0.947100  0.837000  1.0  -0.4024
  O  O294  1  0.863300  0.033600  0.778100  1.0  -0.3861
  O  O295  1  0.648600  0.820700  0.743900  1.0  -0.3598
  O  O296  1  0.706500  0.845400  0.690100  1.0  -0.4241
  O  O297  1  0.846300  0.787500  0.746700  1.0  -0.3716
  O  O298  1  0.856300  0.750800  0.668200  1.0  -0.4118
  O  O299  1  0.704600  0.046200  0.744500  1.0  -0.428
  O  O300  1  0.751300  0.162400  0.725500  1.0  -0.4284
  O  O301  1  0.868700  0.992300  0.548600  1.0  -0.4795
  O  O302  1  0.814300  0.108800  0.550600  1.0  -0.6564
  O  O303  1  0.878200  0.730400  0.926000  1.0  -0.7595
  O  O304  1  0.832100  0.629800  0.879000  1.0  -0.4966
  O  O305  1  0.034200  0.856900  0.865200  1.0  -0.4039
  O  O306  1  0.048400  0.852600  0.785900  1.0  -0.3951
  O  O307  1  0.912100  0.512100  0.729800  1.0  -0.3763
  O  O308  1  0.943100  0.611600  0.680200  1.0  -0.4118
  O  O309  1  0.722200  0.320100  0.544500  1.0  -0.6895
  O  O310  1  0.804200  0.291900  0.576300  1.0  -0.7022
  O  O311  1  0.599000  0.447100  0.663000  1.0  -0.4057
  O  O312  1  0.636700  0.533600  0.721900  1.0  -0.3867
  O  O313  1  0.851400  0.320700  0.756100  1.0  -0.3566
  O  O314  1  0.793500  0.345400  0.809900  1.0  -0.4225
  O  O315  1  0.653700  0.287500  0.753300  1.0  -0.3723
  O  O316  1  0.643700  0.250800  0.831800  1.0  -0.41
  O  O317  1  0.795400  0.546200  0.755500  1.0  -0.4275
  O  O318  1  0.748700  0.662400  0.774500  1.0  -0.4291
  O  O319  1  0.631300  0.492300  0.951400  1.0  -0.4825
  O  O320  1  0.685700  0.608800  0.949400  1.0  -0.6569
  O  O321  1  0.621800  0.230400  0.574000  1.0  -0.7662
  O  O322  1  0.667900  0.129800  0.621000  1.0  -0.5013
  O  O323  1  0.465800  0.356900  0.634800  1.0  -0.4043
  O  O324  1  0.451600  0.352600  0.714100  1.0  -0.3944
  O  O325  1  0.587900  0.012100  0.770200  1.0  -0.3772
  O  O326  1  0.556900  0.111600  0.819800  1.0  -0.4167
  O  O327  1  0.222200  0.820100  0.544500  1.0  -0.6895
  O  O328  1  0.304200  0.791900  0.576300  1.0  -0.7022
  O  O329  1  0.099000  0.947100  0.663000  1.0  -0.4057
  O  O330  1  0.136700  0.033600  0.721900  1.0  -0.3867
  O  O331  1  0.351400  0.820700  0.756100  1.0  -0.3566
  O  O332  1  0.293500  0.845400  0.809900  1.0  -0.4276
  O  O333  1  0.153700  0.787500  0.753300  1.0  -0.3723
  O  O334  1  0.143700  0.750800  0.831800  1.0  -0.41
  O  O335  1  0.295400  0.046200  0.755500  1.0  -0.4275
  O  O336  1  0.248700  0.162400  0.774500  1.0  -0.4291
  O  O337  1  0.131300  0.992300  0.951400  1.0  -0.4825
  O  O338  1  0.185700  0.108800  0.949400  1.0  -0.6569
  O  O339  1  0.121800  0.730400  0.574000  1.0  -0.7662
  O  O340  1  0.167900  0.629800  0.621000  1.0  -0.5013
  O  O341  1  0.965800  0.856900  0.634800  1.0  -0.4043
  O  O342  1  0.951600  0.852600  0.714100  1.0  -0.3944
  O  O343  1  0.087900  0.512100  0.770200  1.0  -0.3772
  O  O344  1  0.056900  0.611600  0.819800  1.0  -0.4167
  O  O345  1  0.722200  0.679900  0.044500  1.0  -0.6894
  O  O346  1  0.804200  0.708100  0.076300  1.0  -0.7025
  O  O347  1  0.599000  0.552900  0.163000  1.0  -0.3999
  O  O348  1  0.636700  0.466400  0.221900  1.0  -0.385
  O  O349  1  0.851400  0.679300  0.256100  1.0  -0.3558
  O  O350  1  0.793500  0.654600  0.309900  1.0  -0.4265
  O  O351  1  0.653700  0.712500  0.253300  1.0  -0.372
  O  O352  1  0.643700  0.749200  0.331800  1.0  -0.4104
  O  O353  1  0.795400  0.453800  0.255500  1.0  -0.4268
  O  O354  1  0.748700  0.337600  0.274500  1.0  -0.4297
  O  O355  1  0.631300  0.507700  0.451400  1.0  -0.4822
  O  O356  1  0.685700  0.391200  0.449400  1.0  -0.6551
  O  O357  1  0.621800  0.769600  0.074000  1.0  -0.7667
  O  O358  1  0.667900  0.870200  0.121000  1.0  -0.4973
  O  O359  1  0.465800  0.643100  0.134800  1.0  -0.4035
  O  O360  1  0.451600  0.647400  0.214100  1.0  -0.3937
  O  O361  1  0.587900  0.987900  0.270200  1.0  -0.3765
  O  O362  1  0.556900  0.888400  0.319800  1.0  -0.4166
  O  O363  1  0.222200  0.179900  0.044500  1.0  -0.6894
  O  O364  1  0.304200  0.208100  0.076300  1.0  -0.7025
  O  O365  1  0.099000  0.052900  0.163000  1.0  -0.3999
  O  O366  1  0.136700  0.966400  0.221900  1.0  -0.385
  O  O367  1  0.351400  0.179300  0.256100  1.0  -0.3558
  O  O368  1  0.293500  0.154600  0.309900  1.0  -0.4265
  O  O369  1  0.153700  0.212500  0.253300  1.0  -0.372
  O  O370  1  0.143700  0.249200  0.331800  1.0  -0.4104
  O  O371  1  0.295400  0.953800  0.255500  1.0  -0.4268
  O  O372  1  0.248700  0.837600  0.274500  1.0  -0.4297
  O  O373  1  0.131300  0.007700  0.451400  1.0  -0.4822
  O  O374  1  0.185700  0.891200  0.449400  1.0  -0.6551
  O  O375  1  0.121800  0.269600  0.074000  1.0  -0.7598
  O  O376  1  0.167900  0.370200  0.121000  1.0  -0.4966
  O  O377  1  0.965800  0.143100  0.134800  1.0  -0.4035
  O  O378  1  0.951600  0.147400  0.214100  1.0  -0.3937
  O  O379  1  0.087900  0.487900  0.270200  1.0  -0.3765
  O  O380  1  0.056900  0.388400  0.319800  1.0  -0.4166
  O  O381  1  0.277800  0.679900  0.455500  1.0  -0.6887
  O  O382  1  0.195800  0.708100  0.423700  1.0  -0.7
  O  O383  1  0.401000  0.552900  0.337000  1.0  -0.4027
  O  O384  1  0.363300  0.466400  0.278100  1.0  -0.3857
  O  O385  1  0.148600  0.679300  0.243900  1.0  -0.3607
  O  O386  1  0.206500  0.654600  0.190100  1.0  -0.4198
  O  O387  1  0.346300  0.712500  0.246700  1.0  -0.3711
  O  O388  1  0.356300  0.749200  0.168200  1.0  -0.4147
  O  O389  1  0.204600  0.453800  0.244500  1.0  -0.4275
  O  O390  1  0.251300  0.337600  0.225500  1.0  -0.428
  O  O391  1  0.368700  0.507700  0.048600  1.0  -0.479
  O  O392  1  0.314300  0.391200  0.050600  1.0  -0.6553
  O  O393  1  0.378200  0.769600  0.426000  1.0  -0.7654
  O  O394  1  0.332100  0.870200  0.379000  1.0  -0.5015
  O  O395  1  0.534200  0.643100  0.365200  1.0  -0.4053
  O  O396  1  0.548400  0.647400  0.285900  1.0  -0.3956
  O  O397  1  0.412100  0.987900  0.229800  1.0  -0.3757
  O  O398  1  0.443100  0.888400  0.180200  1.0  -0.4171
  O  O399  1  0.777800  0.179900  0.455500  1.0  -0.6887
  O  O400  1  0.695800  0.208100  0.423700  1.0  -0.7
  O  O401  1  0.901000  0.052900  0.337000  1.0  -0.4027
  O  O402  1  0.863300  0.966400  0.278100  1.0  -0.3857
  O  O403  1  0.648600  0.179300  0.243900  1.0  -0.3607
  O  O404  1  0.706500  0.154600  0.190100  1.0  -0.4255
  O  O405  1  0.846300  0.212500  0.246700  1.0  -0.3711
  O  O406  1  0.856300  0.249200  0.168200  1.0  -0.4147
  O  O407  1  0.704600  0.953800  0.244500  1.0  -0.4275
  O  O408  1  0.751300  0.837600  0.225500  1.0  -0.428
  O  O409  1  0.868700  0.007700  0.048600  1.0  -0.479
  O  O410  1  0.814300  0.891200  0.050600  1.0  -0.6553
  O  O411  1  0.878200  0.269600  0.426000  1.0  -0.7654
  O  O412  1  0.832100  0.370200  0.379000  1.0  -0.5015
  O  O413  1  0.034200  0.143100  0.365200  1.0  -0.4053
  O  O414  1  0.048400  0.147400  0.285900  1.0  -0.3956
  O  O415  1  0.912100  0.487900  0.229800  1.0  -0.3757
  O  O416  1  0.943100  0.388400  0.180200  1.0  -0.4171
