# generated using pymatgen
data_Mg2H10C16O17
_symmetry_space_group_name_H-M   'P 1'
_cell_length_a   11.99300000
_cell_length_b   19.63200000
_cell_length_c   18.14300000
_cell_angle_alpha   90.00000000
_cell_angle_beta   102.06000000
_cell_angle_gamma   90.00000000
_symmetry_Int_Tables_number   1
_chemical_formula_structural   Mg2H10C16O17
_chemical_formula_sum   'Mg8 H40 C64 O68'
_cell_volume   4177.42782979
_cell_formula_units_Z   4
loop_
 _symmetry_equiv_pos_site_id
 _symmetry_equiv_pos_as_xyz
  1  'x, y, z'
loop_
 _atom_site_type_symbol
 _atom_site_label
 _atom_site_symmetry_multiplicity
 _atom_site_fract_x
 _atom_site_fract_y
 _atom_site_fract_z
 _atom_site_occupancy
 _atom_site_charge
  Mg  Mg1  1  0.843750  0.854710  0.730740  1.0  1.484
  Mg  Mg2  1  0.343750  0.354710  0.730740  1.0  1.484
  Mg  Mg3  1  0.156250  0.854710  0.769260  1.0  1.468
  Mg  Mg4  1  0.656250  0.354710  0.769260  1.0  1.468
  Mg  Mg5  1  0.156250  0.145290  0.269260  1.0  1.4682
  Mg  Mg6  1  0.656250  0.645290  0.269260  1.0  1.4682
  Mg  Mg7  1  0.843750  0.145290  0.230740  1.0  1.4842
  Mg  Mg8  1  0.343750  0.645290  0.230740  1.0  1.4842
  H  H9  1  0.205700  0.967500  0.923000  1.0  0.3623
  H  H10  1  0.975300  0.694100  0.959500  1.0  0.3615
  H  H11  1  0.990000  0.773000  0.788000  1.0  0.3499
  H  H12  1  0.807400  0.933700  0.876100  1.0  0.2858
  H  H13  1  0.700100  0.842300  0.862700  1.0  0.315
  H  H14  1  0.705700  0.467500  0.923000  1.0  0.3623
  H  H15  1  0.475300  0.194100  0.959500  1.0  0.3615
  H  H16  1  0.490000  0.273000  0.788000  1.0  0.3499
  H  H17  1  0.307400  0.433700  0.876100  1.0  0.2858
  H  H18  1  0.200100  0.342300  0.862700  1.0  0.315
  H  H19  1  0.794300  0.967500  0.577000  1.0  0.3616
  H  H20  1  0.024700  0.694100  0.540500  1.0  0.3606
  H  H21  1  0.010000  0.773000  0.712000  1.0  0.3499
  H  H22  1  0.192600  0.933700  0.623900  1.0  0.2879
  H  H23  1  0.299900  0.842300  0.637300  1.0  0.3172
  H  H24  1  0.294300  0.467500  0.577000  1.0  0.3616
  H  H25  1  0.524700  0.194100  0.540500  1.0  0.3606
  H  H26  1  0.510000  0.273000  0.712000  1.0  0.3499
  H  H27  1  0.692600  0.433700  0.623900  1.0  0.2879
  H  H28  1  0.799900  0.342300  0.637300  1.0  0.3172
  H  H29  1  0.794300  0.032500  0.077000  1.0  0.3613
  H  H30  1  0.024700  0.305900  0.040500  1.0  0.3605
  H  H31  1  0.010000  0.227000  0.212000  1.0  0.3513
  H  H32  1  0.192600  0.066300  0.123900  1.0  0.2881
  H  H33  1  0.299900  0.157700  0.137300  1.0  0.3187
  H  H34  1  0.294300  0.532500  0.077000  1.0  0.3613
  H  H35  1  0.524700  0.805900  0.040500  1.0  0.3605
  H  H36  1  0.510000  0.727000  0.212000  1.0  0.3513
  H  H37  1  0.692600  0.566300  0.123900  1.0  0.2881
  H  H38  1  0.799900  0.657700  0.137300  1.0  0.3187
  H  H39  1  0.205700  0.032500  0.423000  1.0  0.3622
  H  H40  1  0.975300  0.305900  0.459500  1.0  0.3612
  H  H41  1  0.990000  0.227000  0.288000  1.0  0.3503
  H  H42  1  0.807400  0.066300  0.376100  1.0  0.2864
  H  H43  1  0.700100  0.157700  0.362700  1.0  0.3154
  H  H44  1  0.705700  0.532500  0.423000  1.0  0.3622
  H  H45  1  0.475300  0.805900  0.459500  1.0  0.3612
  H  H46  1  0.490000  0.727000  0.288000  1.0  0.3503
  H  H47  1  0.307400  0.566300  0.376100  1.0  0.2864
  H  H48  1  0.200100  0.657700  0.362700  1.0  0.3154
  C  C49  1  0.011100  0.928480  0.861880  1.0  0.6896
  C  C50  1  0.005300  0.966050  0.933010  1.0  -0.13
  C  C51  1  0.104200  0.992550  0.978700  1.0  0.2469
  C  C52  1  0.900700  0.973180  0.955220  1.0  0.2487
  C  C53  1  0.849900  0.767120  0.869020  1.0  0.6093
  C  C54  1  0.799300  0.758260  0.937590  1.0  -0.1161
  C  C55  1  0.851400  0.716440  0.997000  1.0  0.2428
  C  C56  1  0.698600  0.791930  0.941230  1.0  0.2789
  C  C57  1  0.511100  0.428480  0.861880  1.0  0.6896
  C  C58  1  0.505300  0.466050  0.933010  1.0  -0.13
  C  C59  1  0.604200  0.492550  0.978700  1.0  0.2469
  C  C60  1  0.400700  0.473180  0.955220  1.0  0.2487
  C  C61  1  0.349900  0.267120  0.869020  1.0  0.6093
  C  C62  1  0.299300  0.258260  0.937590  1.0  -0.1161
  C  C63  1  0.351400  0.216440  0.997000  1.0  0.2428
  C  C64  1  0.198600  0.291930  0.941230  1.0  0.2789
  C  C65  1  0.988900  0.928480  0.638120  1.0  0.687
  C  C66  1  0.994700  0.966050  0.566990  1.0  -0.1299
  C  C67  1  0.895800  0.992550  0.521300  1.0  0.2473
  C  C68  1  0.099300  0.973180  0.544780  1.0  0.2481
  C  C69  1  0.150100  0.767120  0.630980  1.0  0.6108
  C  C70  1  0.200700  0.758260  0.562410  1.0  -0.1162
  C  C71  1  0.148600  0.716440  0.503000  1.0  0.2442
  C  C72  1  0.301400  0.791930  0.558770  1.0  0.2795
  C  C73  1  0.488900  0.428480  0.638120  1.0  0.687
  C  C74  1  0.494700  0.466050  0.566990  1.0  -0.1299
  C  C75  1  0.395800  0.492550  0.521300  1.0  0.2473
  C  C76  1  0.599300  0.473180  0.544780  1.0  0.2481
  C  C77  1  0.650100  0.267120  0.630980  1.0  0.6108
  C  C78  1  0.700700  0.258260  0.562410  1.0  -0.1162
  C  C79  1  0.648600  0.216440  0.503000  1.0  0.2442
  C  C80  1  0.801400  0.291930  0.558770  1.0  0.2795
  C  C81  1  0.988900  0.071520  0.138120  1.0  0.6873
  C  C82  1  0.994700  0.033950  0.066990  1.0  -0.1305
  C  C83  1  0.895800  0.007450  0.021300  1.0  0.2469
  C  C84  1  0.099300  0.026820  0.044780  1.0  0.248
  C  C85  1  0.150100  0.232880  0.130980  1.0  0.6106
  C  C86  1  0.200700  0.241740  0.062410  1.0  -0.1161
  C  C87  1  0.148600  0.283560  0.003000  1.0  0.2453
  C  C88  1  0.301400  0.208070  0.058770  1.0  0.2786
  C  C89  1  0.488900  0.571520  0.138120  1.0  0.6873
  C  C90  1  0.494700  0.533950  0.066990  1.0  -0.1305
  C  C91  1  0.395800  0.507450  0.021300  1.0  0.2469
  C  C92  1  0.599300  0.526820  0.044780  1.0  0.248
  C  C93  1  0.650100  0.732880  0.130980  1.0  0.6106
  C  C94  1  0.700700  0.741740  0.062410  1.0  -0.1161
  C  C95  1  0.648600  0.783560  0.003000  1.0  0.2453
  C  C96  1  0.801400  0.708070  0.058770  1.0  0.2786
  C  C97  1  0.011100  0.071520  0.361880  1.0  0.6894
  C  C98  1  0.005300  0.033950  0.433010  1.0  -0.1308
  C  C99  1  0.104200  0.007450  0.478700  1.0  0.2463
  C  C100  1  0.900700  0.026820  0.455220  1.0  0.2484
  C  C101  1  0.849900  0.232880  0.369020  1.0  0.6105
  C  C102  1  0.799300  0.241740  0.437590  1.0  -0.1162
  C  C103  1  0.851400  0.283560  0.497000  1.0  0.2428
  C  C104  1  0.698600  0.208070  0.441230  1.0  0.2776
  C  C105  1  0.511100  0.571520  0.361880  1.0  0.6894
  C  C106  1  0.505300  0.533950  0.433010  1.0  -0.1308
  C  C107  1  0.604200  0.507450  0.478700  1.0  0.2463
  C  C108  1  0.400700  0.526820  0.455220  1.0  0.2484
  C  C109  1  0.349900  0.732880  0.369020  1.0  0.6105
  C  C110  1  0.299300  0.741740  0.437590  1.0  -0.1162
  C  C111  1  0.351400  0.783560  0.497000  1.0  0.2428
  C  C112  1  0.198600  0.708070  0.441230  1.0  0.2776
  O  O113  1  0.918400  0.917910  0.816310  1.0  -0.6646
  O  O114  1  0.107600  0.910740  0.852570  1.0  -0.692
  O  O115  1  0.209600  0.988400  0.962600  1.0  -0.5457
  O  O116  1  0.793600  0.799790  0.814700  1.0  -0.6651
  O  O117  1  0.946100  0.740480  0.870220  1.0  -0.6162
  O  O118  1  0.954200  0.685770  0.998720  1.0  -0.5334
  O  O119  1  0.798300  0.953600  0.914100  1.0  -0.5435
  O  O120  1  0.658100  0.837900  0.892700  1.0  -0.5409
  O  O121  1  0.418400  0.417910  0.816310  1.0  -0.6646
  O  O122  1  0.607600  0.410740  0.852570  1.0  -0.692
  O  O123  1  0.709600  0.488400  0.962600  1.0  -0.5457
  O  O124  1  0.293600  0.299790  0.814700  1.0  -0.6651
  O  O125  1  0.446100  0.240480  0.870220  1.0  -0.6162
  O  O126  1  0.454200  0.185770  0.998720  1.0  -0.5334
  O  O127  1  0.298300  0.453600  0.914100  1.0  -0.5435
  O  O128  1  0.158100  0.337900  0.892700  1.0  -0.5409
  O  O129  1  0.081600  0.917910  0.683690  1.0  -0.6647
  O  O130  1  0.892400  0.910740  0.647430  1.0  -0.6922
  O  O131  1  0.790400  0.988400  0.537400  1.0  -0.5477
  O  O132  1  0.206400  0.799790  0.685300  1.0  -0.6675
  O  O133  1  0.053900  0.740480  0.629780  1.0  -0.6171
  O  O134  1  0.045800  0.685770  0.501280  1.0  -0.5359
  O  O135  1  0.201700  0.953600  0.585900  1.0  -0.5452
  O  O136  1  0.341900  0.837900  0.607300  1.0  -0.5382
  O  O137  1  0.581600  0.417910  0.683690  1.0  -0.6647
  O  O138  1  0.392400  0.410740  0.647430  1.0  -0.6922
  O  O139  1  0.290400  0.488400  0.537400  1.0  -0.5477
  O  O140  1  0.706400  0.299790  0.685300  1.0  -0.6675
  O  O141  1  0.553900  0.240480  0.629780  1.0  -0.6171
  O  O142  1  0.545800  0.185770  0.501280  1.0  -0.5359
  O  O143  1  0.701700  0.453600  0.585900  1.0  -0.5452
  O  O144  1  0.841900  0.337900  0.607300  1.0  -0.5382
  O  O145  1  0.081600  0.082090  0.183690  1.0  -0.6647
  O  O146  1  0.892400  0.089260  0.147430  1.0  -0.6918
  O  O147  1  0.790400  0.011600  0.037400  1.0  -0.5469
  O  O148  1  0.206400  0.200210  0.185300  1.0  -0.6672
  O  O149  1  0.053900  0.259520  0.129780  1.0  -0.6162
  O  O150  1  0.045800  0.314230  0.001280  1.0  -0.5348
  O  O151  1  0.201700  0.046400  0.085900  1.0  -0.5463
  O  O152  1  0.341900  0.162100  0.107300  1.0  -0.5398
  O  O153  1  0.581600  0.582090  0.183690  1.0  -0.6647
  O  O154  1  0.392400  0.589260  0.147430  1.0  -0.6918
  O  O155  1  0.290400  0.511600  0.037400  1.0  -0.5469
  O  O156  1  0.706400  0.700210  0.185300  1.0  -0.6672
  O  O157  1  0.553900  0.759520  0.129780  1.0  -0.6162
  O  O158  1  0.545800  0.814230  0.001280  1.0  -0.5348
  O  O159  1  0.701700  0.546400  0.085900  1.0  -0.5463
  O  O160  1  0.841900  0.662100  0.107300  1.0  -0.5398
  O  O161  1  0.918400  0.082090  0.316310  1.0  -0.665
  O  O162  1  0.107600  0.089260  0.352570  1.0  -0.6923
  O  O163  1  0.209600  0.011600  0.462600  1.0  -0.5449
  O  O164  1  0.793600  0.200210  0.314700  1.0  -0.666
  O  O165  1  0.946100  0.259520  0.370220  1.0  -0.6171
  O  O166  1  0.954200  0.314230  0.498720  1.0  -0.5336
  O  O167  1  0.798300  0.046400  0.414100  1.0  -0.5438
  O  O168  1  0.658100  0.162100  0.392700  1.0  -0.542
  O  O169  1  0.418400  0.582090  0.316310  1.0  -0.665
  O  O170  1  0.607600  0.589260  0.352570  1.0  -0.6923
  O  O171  1  0.709600  0.511600  0.462600  1.0  -0.5449
  O  O172  1  0.293600  0.700210  0.314700  1.0  -0.666
  O  O173  1  0.446100  0.759520  0.370220  1.0  -0.6171
  O  O174  1  0.454200  0.814230  0.498720  1.0  -0.5336
  O  O175  1  0.298300  0.546400  0.414100  1.0  -0.5438
  O  O176  1  0.158100  0.662100  0.392700  1.0  -0.542
  O  O177  1  0.000000  0.797540  0.750000  1.0  -0.8331
  O  O178  1  0.500000  0.297540  0.750000  1.0  -0.8331
  O  O179  1  0.000000  0.202460  0.250000  1.0  -0.8348
  O  O180  1  0.500000  0.702460  0.250000  1.0  -0.8348
