# generated using pymatgen
data_SrH4(C4O3)2
_symmetry_space_group_name_H-M   'P 1'
_cell_length_a   11.43900000
_cell_length_b   11.96600000
_cell_length_c   12.11300000
_cell_angle_alpha   101.03600000
_cell_angle_beta   106.89000000
_cell_angle_gamma   107.95000000
_symmetry_Int_Tables_number   1
_chemical_formula_structural   SrH4(C4O3)2
_chemical_formula_sum   'Sr3 H12 C24 O18'
_cell_volume   1435.58367121
_cell_formula_units_Z   3
loop_
 _symmetry_equiv_pos_site_id
 _symmetry_equiv_pos_as_xyz
  1  'x, y, z'
loop_
 _atom_site_type_symbol
 _atom_site_label
 _atom_site_symmetry_multiplicity
 _atom_site_fract_x
 _atom_site_fract_y
 _atom_site_fract_z
 _atom_site_occupancy
 _atom_site_charge
  Sr  Sr1  1  0.284040  0.285920  0.774250  1.0  1.6232
  Sr  Sr2  1  0.715960  0.714080  0.225750  1.0  1.6216
  Sr  Sr3  1  0.000000  0.000000  0.500000  1.0  1.5526
  H  H4  1  0.105500  0.478800  0.684500  1.0  0.1167
  H  H5  1  0.195800  0.123500  0.991500  1.0  0.123
  H  H6  1  0.271700  0.937900  0.434500  1.0  0.1053
  H  H7  1  0.861000  0.235700  0.312000  1.0  0.3588
  H  H8  1  0.793000  0.873000  0.731300  1.0  0.375
  H  H9  1  0.622000  0.250000  0.707000  1.0  0.3662
  H  H10  1  0.894500  0.521200  0.315500  1.0  0.1167
  H  H11  1  0.804200  0.876500  0.008500  1.0  0.1229
  H  H12  1  0.728300  0.062100  0.565500  1.0  0.1057
  H  H13  1  0.139000  0.764300  0.688000  1.0  0.3617
  H  H14  1  0.207000  0.127000  0.268700  1.0  0.3754
  H  H15  1  0.378000  0.750000  0.293000  1.0  0.3649
  C  C16  1  0.996700  0.260200  0.516200  1.0  0.716
  C  C17  1  0.997400  0.384400  0.508400  1.0  -0.248
  C  C18  1  0.932900  0.396100  0.396000  1.0  0.306
  C  C19  1  0.063100  0.487300  0.610300  1.0  -0.1404
  C  C20  1  0.012500  0.024000  0.769400  1.0  0.7169
  C  C21  1  0.006100  0.010600  0.889100  1.0  -0.2853
  C  C22  1  0.117300  0.074000  0.995200  1.0  -0.1419
  C  C23  1  0.886500  0.934800  0.893000  1.0  0.3056
  C  C24  1  0.384300  0.147900  0.615200  1.0  0.681
  C  C25  1  0.444500  0.071500  0.554600  1.0  -0.2661
  C  C26  1  0.582800  0.109300  0.594800  1.0  0.3157
  C  C27  1  0.363200  0.962700  0.460600  1.0  -0.1236
  C  C28  1  0.003300  0.739800  0.483800  1.0  0.717
  C  C29  1  0.002600  0.615600  0.491600  1.0  -0.2467
  C  C30  1  0.067100  0.603900  0.604000  1.0  0.308
  C  C31  1  0.936900  0.512700  0.389700  1.0  -0.14
  C  C32  1  0.987500  0.976000  0.230600  1.0  0.7187
  C  C33  1  0.993900  0.989400  0.110900  1.0  -0.2838
  C  C34  1  0.882700  0.926000  0.004800  1.0  -0.1403
  C  C35  1  0.113500  0.065200  0.107000  1.0  0.3052
  C  C36  1  0.615700  0.852100  0.384800  1.0  0.6803
  C  C37  1  0.555500  0.928500  0.445400  1.0  -0.2677
  C  C38  1  0.417200  0.890700  0.405200  1.0  0.3171
  C  C39  1  0.636800  0.037300  0.539400  1.0  -0.1234
  O  O40  1  0.922500  0.168000  0.424700  1.0  -0.67
  O  O41  1  0.070600  0.252700  0.610800  1.0  -0.7778
  O  O42  1  0.868100  0.299200  0.292800  1.0  -0.4795
  O  O43  1  0.909200  0.964100  0.675500  1.0  -0.6749
  O  O44  1  0.118500  0.092100  0.766300  1.0  -0.7591
  O  O45  1  0.775600  0.870400  0.792700  1.0  -0.488
  O  O46  1  0.261600  0.110100  0.586900  1.0  -0.7187
  O  O47  1  0.462500  0.249200  0.696500  1.0  -0.6362
  O  O48  1  0.666900  0.214700  0.687200  1.0  -0.4813
  O  O49  1  0.077500  0.832000  0.575300  1.0  -0.6695
  O  O50  1  0.929400  0.747300  0.389200  1.0  -0.7782
  O  O51  1  0.131900  0.700800  0.707200  1.0  -0.4786
  O  O52  1  0.090800  0.035900  0.324500  1.0  -0.6747
  O  O53  1  0.881500  0.907900  0.233700  1.0  -0.7576
  O  O54  1  0.224400  0.129600  0.207300  1.0  -0.4883
  O  O55  1  0.738400  0.889900  0.413100  1.0  -0.7188
  O  O56  1  0.537500  0.750800  0.303500  1.0  -0.6342
  O  O57  1  0.333100  0.785300  0.312800  1.0  -0.4848
