# generated using pymatgen
data_CuH3C9O4
_symmetry_space_group_name_H-M   'P 1'
_cell_length_a   15.37400000
_cell_length_b   15.37400000
_cell_length_c   15.37400000
_cell_angle_alpha   74.84150000
_cell_angle_beta   74.84150000
_cell_angle_gamma   74.84150000
_symmetry_Int_Tables_number   1
_chemical_formula_structural   CuH3C9O4
_chemical_formula_sum   'Cu6 H18 C54 O24'
_cell_volume   3311.79975039
_cell_formula_units_Z   6
loop_
 _symmetry_equiv_pos_site_id
 _symmetry_equiv_pos_as_xyz
  1  'x, y, z'
loop_
 _atom_site_type_symbol
 _atom_site_label
 _atom_site_symmetry_multiplicity
 _atom_site_fract_x
 _atom_site_fract_y
 _atom_site_fract_z
 _atom_site_occupancy
 _atom_site_charge
  Cu  Cu1  1  0.990220  0.990220  0.420070  1.0  0.9017
  Cu  Cu2  1  0.420070  0.990220  0.990220  1.0  0.9002
  Cu  Cu3  1  0.990220  0.420070  0.990220  1.0  0.9017
  Cu  Cu4  1  0.009780  0.009780  0.579930  1.0  0.9021
  Cu  Cu5  1  0.009780  0.579930  0.009780  1.0  0.9011
  Cu  Cu6  1  0.579930  0.009780  0.009780  1.0  0.902
  H  H7  1  0.988900  0.303000  0.516400  1.0  0.1157
  H  H8  1  0.516400  0.988900  0.303000  1.0  0.1161
  H  H9  1  0.303000  0.516400  0.988900  1.0  0.1147
  H  H10  1  0.697000  0.011100  0.483600  1.0  0.1168
  H  H11  1  0.011100  0.483600  0.697000  1.0  0.1161
  H  H12  1  0.483600  0.697000  0.011100  1.0  0.116
  H  H13  1  0.011100  0.697000  0.483600  1.0  0.1167
  H  H14  1  0.483600  0.011100  0.697000  1.0  0.1162
  H  H15  1  0.697000  0.483600  0.011100  1.0  0.1156
  H  H16  1  0.303000  0.988900  0.516400  1.0  0.1158
  H  H17  1  0.988900  0.516400  0.303000  1.0  0.1159
  H  H18  1  0.516400  0.303000  0.988900  1.0  0.115
  H  H19  1  0.974100  0.271000  0.271000  1.0  0.1109
  H  H20  1  0.271000  0.974100  0.271000  1.0  0.1108
  H  H21  1  0.271000  0.271000  0.974100  1.0  0.1099
  H  H22  1  0.729000  0.025900  0.729000  1.0  0.1109
  H  H23  1  0.025900  0.729000  0.729000  1.0  0.1111
  H  H24  1  0.729000  0.729000  0.025900  1.0  0.1107
  C  C25  1  0.981560  0.271460  0.400960  1.0  -0.1261
  C  C26  1  0.987230  0.327230  0.454630  1.0  -0.0487
  C  C27  1  0.983630  0.170730  0.438630  1.0  0.6673
  C  C28  1  0.400960  0.981560  0.271460  1.0  -0.1252
  C  C29  1  0.454630  0.987230  0.327230  1.0  -0.0472
  C  C30  1  0.438630  0.983630  0.170730  1.0  0.6686
  C  C31  1  0.271460  0.400960  0.981560  1.0  -0.1253
  C  C32  1  0.327230  0.454630  0.987230  1.0  -0.0478
  C  C33  1  0.170730  0.438630  0.983630  1.0  0.6663
  C  C34  1  0.728540  0.018440  0.599040  1.0  -0.1257
  C  C35  1  0.672770  0.012770  0.545370  1.0  -0.0484
  C  C36  1  0.829270  0.016370  0.561370  1.0  0.6665
  C  C37  1  0.018440  0.599040  0.728540  1.0  -0.1248
  C  C38  1  0.012770  0.545370  0.672770  1.0  -0.0493
  C  C39  1  0.016370  0.561370  0.829270  1.0  0.6671
  C  C40  1  0.599040  0.728540  0.018440  1.0  -0.1256
  C  C41  1  0.545370  0.672770  0.012770  1.0  -0.0483
  C  C42  1  0.561370  0.829270  0.016370  1.0  0.6676
  C  C43  1  0.018440  0.728540  0.599040  1.0  -0.126
  C  C44  1  0.012770  0.672770  0.545370  1.0  -0.0488
  C  C45  1  0.016370  0.829270  0.561370  1.0  0.6673
  C  C46  1  0.599040  0.018440  0.728540  1.0  -0.1256
  C  C47  1  0.545370  0.012770  0.672770  1.0  -0.0476
  C  C48  1  0.561370  0.016370  0.829270  1.0  0.6683
  C  C49  1  0.728540  0.599040  0.018440  1.0  -0.1257
  C  C50  1  0.672770  0.545370  0.012770  1.0  -0.0485
  C  C51  1  0.829270  0.561370  0.016370  1.0  0.6663
  C  C52  1  0.271460  0.981560  0.400960  1.0  -0.1254
  C  C53  1  0.327230  0.987230  0.454630  1.0  -0.0492
  C  C54  1  0.170730  0.983630  0.438630  1.0  0.6666
  C  C55  1  0.981560  0.400960  0.271460  1.0  -0.1262
  C  C56  1  0.987230  0.454630  0.327230  1.0  -0.0478
  C  C57  1  0.983630  0.438630  0.170730  1.0  0.6676
  C  C58  1  0.400960  0.271460  0.981560  1.0  -0.125
  C  C59  1  0.454630  0.327230  0.987230  1.0  -0.0466
  C  C60  1  0.438630  0.170730  0.983630  1.0  0.6678
  C  C61  1  0.990400  0.419150  0.419150  1.0  0.0707
  C  C62  1  0.996220  0.476870  0.476870  1.0  -0.0818
  C  C63  1  0.978360  0.308110  0.308110  1.0  0.0187
  C  C64  1  0.419150  0.990400  0.419150  1.0  0.0713
  C  C65  1  0.476870  0.996220  0.476870  1.0  -0.0828
  C  C66  1  0.308110  0.978360  0.308110  1.0  0.0184
  C  C67  1  0.419150  0.419150  0.990400  1.0  0.0698
  C  C68  1  0.476870  0.476870  0.996220  1.0  -0.0818
  C  C69  1  0.308110  0.308110  0.978360  1.0  0.0181
  C  C70  1  0.580850  0.009600  0.580850  1.0  0.0694
  C  C71  1  0.523130  0.003780  0.523130  1.0  -0.0866
  C  C72  1  0.691890  0.021640  0.691890  1.0  0.0185
  C  C73  1  0.009600  0.580850  0.580850  1.0  0.0677
  C  C74  1  0.003780  0.523130  0.523130  1.0  -0.0842
  C  C75  1  0.021640  0.691890  0.691890  1.0  0.0196
  C  C76  1  0.580850  0.580850  0.009600  1.0  0.0658
  C  C77  1  0.523130  0.523130  0.003780  1.0  -0.086
  C  C78  1  0.691890  0.691890  0.021640  1.0  0.0199
  O  O79  1  0.978900  0.124290  0.384020  1.0  -0.5563
  O  O80  1  0.993910  0.140210  0.520970  1.0  -0.5614
  O  O81  1  0.384020  0.978900  0.124290  1.0  -0.5565
  O  O82  1  0.520970  0.993910  0.140210  1.0  -0.5617
  O  O83  1  0.124290  0.384020  0.978900  1.0  -0.5557
  O  O84  1  0.140210  0.520970  0.993910  1.0  -0.5619
  O  O85  1  0.875710  0.021100  0.615980  1.0  -0.5539
  O  O86  1  0.859790  0.006090  0.479030  1.0  -0.5625
  O  O87  1  0.021100  0.615980  0.875710  1.0  -0.5564
  O  O88  1  0.006090  0.479030  0.859790  1.0  -0.5614
  O  O89  1  0.615980  0.875710  0.021100  1.0  -0.5555
  O  O90  1  0.479030  0.859790  0.006090  1.0  -0.5621
  O  O91  1  0.021100  0.875710  0.615980  1.0  -0.5548
  O  O92  1  0.006090  0.859790  0.479030  1.0  -0.5608
  O  O93  1  0.615980  0.021100  0.875710  1.0  -0.5555
  O  O94  1  0.479030  0.006090  0.859790  1.0  -0.5624
  O  O95  1  0.875710  0.615980  0.021100  1.0  -0.5553
  O  O96  1  0.859790  0.479030  0.006090  1.0  -0.5625
  O  O97  1  0.124290  0.978900  0.384020  1.0  -0.5555
  O  O98  1  0.140210  0.993910  0.520970  1.0  -0.5623
  O  O99  1  0.978900  0.384020  0.124290  1.0  -0.5574
  O  O100  1  0.993910  0.520970  0.140210  1.0  -0.561
  O  O101  1  0.384020  0.124290  0.978900  1.0  -0.556
  O  O102  1  0.520970  0.140210  0.993910  1.0  -0.5616
