# generated using pymatgen
data_ZnH17C28N3O2
_symmetry_space_group_name_H-M   'P 1'
_cell_length_a   23.59560000
_cell_length_b   23.59560000
_cell_length_c   30.75440000
_cell_angle_alpha   69.53700000
_cell_angle_beta   69.53690000
_cell_angle_gamma   95.08630000
_symmetry_Int_Tables_number   1
_chemical_formula_structural   ZnH17C28N3O2
_chemical_formula_sum   'Zn8 H136 C224 N24 O16'
_cell_volume   14589.64435011
_cell_formula_units_Z   8
loop_
 _symmetry_equiv_pos_site_id
 _symmetry_equiv_pos_as_xyz
  1  'x, y, z'
loop_
 _atom_site_type_symbol
 _atom_site_label
 _atom_site_symmetry_multiplicity
 _atom_site_fract_x
 _atom_site_fract_y
 _atom_site_fract_z
 _atom_site_occupancy
 _atom_site_charge
  Zn  Zn1  1  0.633150  0.383150  0.733700  1.0  0.7865
  Zn  Zn2  1  0.116850  0.866850  0.766300  1.0  0.7875
  Zn  Zn3  1  0.366850  0.616850  0.266300  1.0  0.7875
  Zn  Zn4  1  0.883150  0.133150  0.233700  1.0  0.7865
  Zn  Zn5  1  0.097080  0.347080  0.805840  1.0  0.9252
  Zn  Zn6  1  0.152920  0.402920  0.694160  1.0  0.9243
  Zn  Zn7  1  0.902920  0.652920  0.194160  1.0  0.9243
  Zn  Zn8  1  0.847080  0.597080  0.305840  1.0  0.9252
  H  H9  1  0.718400  0.186000  0.749000  1.0  0.1319
  H  H10  1  0.798000  0.259400  0.748800  1.0  0.1115
  H  H11  1  0.822800  0.485400  0.748400  1.0  0.1122
  H  H12  1  0.756800  0.559400  0.750400  1.0  0.1263
  H  H13  1  0.883400  0.407200  0.673200  1.0  0.1031
  H  H14  1  0.980600  0.411400  0.674000  1.0  0.1092
  H  H15  1  0.904400  0.335200  0.823800  1.0  0.1123
  H  H16  1  0.807200  0.333800  0.821800  1.0  0.1074
  H  H17  1  0.574400  0.124600  0.804800  1.0  0.0952
  H  H18  1  0.578800  0.025600  0.802800  1.0  0.1155
  H  H19  1  0.598600  0.017800  0.726600  1.0  0.1046
  H  H20  1  0.643600  0.106200  0.649600  1.0  0.1183
  H  H21  1  0.648000  0.206000  0.654800  1.0  0.1133
  H  H22  1  0.875400  0.519400  0.392400  1.0  0.0856
  H  H23  1  0.834800  0.476800  0.479200  1.0  0.1224
  H  H24  1  0.650500  0.511900  0.557000  1.0  0.124
  H  H25  1  0.609800  0.468000  0.642800  1.0  0.0784
  H  H26  1  0.532600  0.565000  0.749000  1.0  0.1336
  H  H27  1  0.453200  0.491800  0.748800  1.0  0.1133
  H  H28  1  0.428800  0.266200  0.748400  1.0  0.1128
  H  H29  1  0.492800  0.190200  0.750400  1.0  0.1283
  H  H30  1  0.443400  0.419600  0.673200  1.0  0.1035
  H  H31  1  0.345400  0.414600  0.674000  1.0  0.1086
  H  H32  1  0.271800  0.341000  0.823800  1.0  0.1135
  H  H33  1  0.371000  0.344400  0.821800  1.0  0.1069
  H  H34  1  0.620800  0.570600  0.804800  1.0  0.096
  H  H35  1  0.618400  0.671600  0.802800  1.0  0.1125
  H  H36  1  0.674800  0.755600  0.726600  1.0  0.1041
  H  H37  1  0.706800  0.744200  0.649600  1.0  0.1202
  H  H38  1  0.697200  0.639200  0.654800  1.0  0.1111
  H  H39  1  0.732200  0.588200  0.392400  1.0  0.0853
  H  H40  1  0.686000  0.544000  0.479200  1.0  0.1215
  H  H41  1  0.792500  0.431100  0.557000  1.0  0.1232
  H  H42  1  0.747400  0.389200  0.642800  1.0  0.0783
  H  H43  1  0.314000  0.781600  0.751000  1.0  0.1319
  H  H44  1  0.240600  0.702000  0.751200  1.0  0.1128
  H  H45  1  0.014600  0.677200  0.751600  1.0  0.1103
  H  H46  1  0.940600  0.743200  0.749600  1.0  0.1281
  H  H47  1  0.092800  0.616600  0.826800  1.0  0.1034
  H  H48  1  0.088600  0.519400  0.826000  1.0  0.1089
  H  H49  1  0.164800  0.595600  0.676200  1.0  0.1117
  H  H50  1  0.166200  0.692800  0.678200  1.0  0.1066
  H  H51  1  0.375400  0.925600  0.695200  1.0  0.0941
  H  H52  1  0.474400  0.921200  0.697200  1.0  0.112
  H  H53  1  0.482200  0.901400  0.773400  1.0  0.1042
  H  H54  1  0.393800  0.856400  0.850400  1.0  0.1158
  H  H55  1  0.294000  0.852000  0.845200  1.0  0.1125
  H  H56  1  0.980600  0.624600  0.107600  1.0  0.0853
  H  H57  1  0.023200  0.665200  0.020800  1.0  0.1233
  H  H58  1  0.988100  0.849500  0.943000  1.0  0.1246
  H  H59  1  0.032000  0.890200  0.857200  1.0  0.0793
  H  H60  1  0.935000  0.967400  0.751000  1.0  0.1335
  H  H61  1  0.008200  0.046800  0.751200  1.0  0.112
  H  H62  1  0.233800  0.071200  0.751600  1.0  0.1108
  H  H63  1  0.309800  0.007200  0.749600  1.0  0.1286
  H  H64  1  0.080400  0.056600  0.826800  1.0  0.1035
  H  H65  1  0.085400  0.154600  0.826000  1.0  0.1092
  H  H66  1  0.159000  0.228200  0.676200  1.0  0.1127
  H  H67  1  0.155600  0.129000  0.678200  1.0  0.106
  H  H68  1  0.929400  0.879200  0.695200  1.0  0.0947
  H  H69  1  0.828400  0.881600  0.697200  1.0  0.1107
  H  H70  1  0.744400  0.825200  0.773400  1.0  0.1024
  H  H71  1  0.755800  0.793200  0.850400  1.0  0.1192
  H  H72  1  0.860800  0.802800  0.845200  1.0  0.1123
  H  H73  1  0.911800  0.767800  0.107600  1.0  0.0849
  H  H74  1  0.956000  0.814000  0.020800  1.0  0.1259
  H  H75  1  0.068900  0.707500  0.943000  1.0  0.125
  H  H76  1  0.110800  0.752600  0.857200  1.0  0.0791
  H  H77  1  0.281600  0.814000  0.251000  1.0  0.1323
  H  H78  1  0.202000  0.740600  0.251200  1.0  0.1126
  H  H79  1  0.177200  0.514600  0.251600  1.0  0.1128
  H  H80  1  0.243200  0.440600  0.249600  1.0  0.1266
  H  H81  1  0.116600  0.592800  0.326800  1.0  0.103
  H  H82  1  0.019400  0.588600  0.326000  1.0  0.1093
  H  H83  1  0.095600  0.664800  0.176200  1.0  0.1122
  H  H84  1  0.192800  0.666200  0.178200  1.0  0.1063
  H  H85  1  0.425600  0.875400  0.195200  1.0  0.0948
  H  H86  1  0.421200  0.974400  0.197200  1.0  0.1139
  H  H87  1  0.401400  0.982200  0.273400  1.0  0.1047
  H  H88  1  0.356400  0.893800  0.350400  1.0  0.1181
  H  H89  1  0.352000  0.794000  0.345200  1.0  0.1144
  H  H90  1  0.124600  0.480600  0.607600  1.0  0.0841
  H  H91  1  0.165200  0.523200  0.520800  1.0  0.1228
  H  H92  1  0.349500  0.488100  0.443000  1.0  0.1236
  H  H93  1  0.390200  0.532000  0.357200  1.0  0.0785
  H  H94  1  0.467400  0.435000  0.251000  1.0  0.1335
  H  H95  1  0.546800  0.508200  0.251200  1.0  0.1117
  H  H96  1  0.571200  0.733800  0.251600  1.0  0.1126
  H  H97  1  0.507200  0.809800  0.249600  1.0  0.1276
  H  H98  1  0.556600  0.580400  0.326800  1.0  0.1039
  H  H99  1  0.654600  0.585400  0.326000  1.0  0.1086
  H  H100  1  0.728200  0.659000  0.176200  1.0  0.113
  H  H101  1  0.629000  0.655600  0.178200  1.0  0.1069
  H  H102  1  0.379200  0.429400  0.195200  1.0  0.095
  H  H103  1  0.381600  0.328400  0.197200  1.0  0.1113
  H  H104  1  0.325200  0.244400  0.273400  1.0  0.1048
  H  H105  1  0.293200  0.255800  0.350400  1.0  0.1199
  H  H106  1  0.302800  0.360800  0.345200  1.0  0.1128
  H  H107  1  0.267800  0.411800  0.607600  1.0  0.0845
  H  H108  1  0.314000  0.456000  0.520800  1.0  0.1232
  H  H109  1  0.207500  0.568900  0.443000  1.0  0.1241
  H  H110  1  0.252600  0.610800  0.357200  1.0  0.0786
  H  H111  1  0.686000  0.218400  0.249000  1.0  0.1332
  H  H112  1  0.759400  0.298000  0.248800  1.0  0.1122
  H  H113  1  0.985400  0.322800  0.248400  1.0  0.1105
  H  H114  1  0.059400  0.256800  0.250400  1.0  0.1276
  H  H115  1  0.907200  0.383400  0.173200  1.0  0.1035
  H  H116  1  0.911400  0.480600  0.174000  1.0  0.1091
  H  H117  1  0.835200  0.404400  0.323800  1.0  0.1131
  H  H118  1  0.833800  0.307200  0.321800  1.0  0.107
  H  H119  1  0.624600  0.074400  0.304800  1.0  0.0945
  H  H120  1  0.525600  0.078800  0.302800  1.0  0.1116
  H  H121  1  0.517800  0.098600  0.226600  1.0  0.1025
  H  H122  1  0.606200  0.143600  0.149600  1.0  0.1156
  H  H123  1  0.706000  0.148000  0.154800  1.0  0.1117
  H  H124  1  0.019400  0.375400  0.892400  1.0  0.0854
  H  H125  1  0.976800  0.334800  0.979200  1.0  0.1246
  H  H126  1  0.011900  0.150500  0.057000  1.0  0.1232
  H  H127  1  0.968000  0.109800  0.142800  1.0  0.0789
  H  H128  1  0.065000  0.032600  0.249000  1.0  0.1317
  H  H129  1  0.991800  0.953200  0.248800  1.0  0.1125
  H  H130  1  0.766200  0.928800  0.248400  1.0  0.1109
  H  H131  1  0.690200  0.992800  0.250400  1.0  0.1287
  H  H132  1  0.919600  0.943400  0.173200  1.0  0.103
  H  H133  1  0.914600  0.845400  0.174000  1.0  0.1089
  H  H134  1  0.841000  0.771800  0.323800  1.0  0.1131
  H  H135  1  0.844400  0.871000  0.321800  1.0  0.1069
  H  H136  1  0.070600  0.120800  0.304800  1.0  0.0957
  H  H137  1  0.171600  0.118400  0.302800  1.0  0.1125
  H  H138  1  0.255600  0.174800  0.226600  1.0  0.1035
  H  H139  1  0.244200  0.206800  0.149600  1.0  0.1192
  H  H140  1  0.139200  0.197200  0.154800  1.0  0.1121
  H  H141  1  0.088200  0.232200  0.892400  1.0  0.0838
  H  H142  1  0.044000  0.186000  0.979200  1.0  0.1244
  H  H143  1  0.931100  0.292500  0.057000  1.0  0.1256
  H  H144  1  0.889200  0.247400  0.142800  1.0  0.078
  C  C145  1  0.666560  0.257160  0.745840  1.0  0.1945
  C  C146  1  0.716870  0.225670  0.748000  1.0  -0.1714
  C  C147  1  0.760070  0.266190  0.748060  1.0  -0.1297
  C  C148  1  0.739540  0.320800  0.746720  1.0  0.1587
  C  C149  1  0.771600  0.373000  0.747080  1.0  -0.0827
  C  C150  1  0.750620  0.426620  0.747080  1.0  0.1294
  C  C151  1  0.783350  0.480150  0.748160  1.0  -0.1428
  C  C152  1  0.747690  0.521110  0.748880  1.0  -0.1787
  C  C153  1  0.692160  0.493720  0.746940  1.0  0.1675
  C  C154  1  0.611800  0.230280  0.745640  1.0  -0.0997
  C  C155  1  0.835290  0.371410  0.747260  1.0  0.1024
  C  C156  1  0.886950  0.392930  0.704160  1.0  -0.1364
  C  C157  1  0.945450  0.394390  0.704580  1.0  -0.0473
  C  C158  1  0.952250  0.371150  0.749120  1.0  -0.1406
  C  C159  1  0.900990  0.349810  0.792720  1.0  -0.0621
  C  C160  1  0.842380  0.349560  0.791380  1.0  -0.1388
  C  C161  1  0.016360  0.371340  0.749460  1.0  0.7068
  C  C162  1  0.611200  0.174400  0.732000  1.0  0.0261
  C  C163  1  0.589900  0.121900  0.773600  1.0  -0.1544
  C  C164  1  0.589240  0.060840  0.773120  1.0  -0.1571
  C  C165  1  0.604800  0.057000  0.727000  1.0  -0.0671
  C  C166  1  0.629670  0.109470  0.680660  1.0  -0.1165
  C  C167  1  0.632200  0.169800  0.684400  1.0  -0.0905
  C  C168  1  0.836940  0.525240  0.409820  1.0  0.1738
  C  C169  1  0.812290  0.498690  0.462620  1.0  -0.211
  C  C170  1  0.671440  0.487140  0.573420  1.0  -0.1957
  C  C171  1  0.647150  0.460410  0.625180  1.0  0.1827
  C  C172  1  0.587600  0.497000  0.745840  1.0  0.1944
  C  C173  1  0.535130  0.526330  0.748000  1.0  -0.1707
  C  C174  1  0.491870  0.485750  0.748060  1.0  -0.1301
  C  C175  1  0.513740  0.432480  0.746720  1.0  0.1583
  C  C176  1  0.481320  0.379920  0.747080  1.0  -0.0809
  C  C177  1  0.502300  0.326300  0.747080  1.0  0.1268
  C  C178  1  0.468490  0.271690  0.748160  1.0  -0.1432
  C  C179  1  0.503430  0.230010  0.748880  1.0  -0.1825
  C  C180  1  0.560900  0.259340  0.746940  1.0  0.1685
  C  C181  1  0.642560  0.524080  0.745640  1.0  -0.0992
  C  C182  1  0.417450  0.381330  0.747260  1.0  0.1025
  C  C183  1  0.408890  0.402910  0.704160  1.0  -0.1384
  C  C184  1  0.349970  0.401030  0.704580  1.0  -0.0485
  C  C185  1  0.298630  0.379730  0.749120  1.0  -0.142
  C  C186  1  0.306290  0.357470  0.792720  1.0  -0.0643
  C  C187  1  0.366240  0.359060  0.791380  1.0  -0.1375
  C  C188  1  0.234180  0.379200  0.749460  1.0  0.7055
  C  C189  1  0.656800  0.593600  0.732000  1.0  0.0242
  C  C190  1  0.636500  0.604500  0.773600  1.0  -0.1506
  C  C191  1  0.637640  0.666040  0.773120  1.0  -0.1586
  C  C192  1  0.668200  0.716000  0.727000  1.0  -0.0615
  C  C193  1  0.689670  0.709870  0.680660  1.0  -0.1182
  C  C194  1  0.683400  0.645800  0.684400  1.0  -0.0875
  C  C195  1  0.753240  0.564940  0.409820  1.0  0.1795
  C  C196  1  0.725090  0.538690  0.462620  1.0  -0.2121
  C  C197  1  0.755140  0.439440  0.573420  1.0  -0.1969
  C  C198  1  0.727670  0.414410  0.625180  1.0  0.1845
  C  C199  1  0.242840  0.833440  0.754160  1.0  0.1943
  C  C200  1  0.274330  0.783130  0.752000  1.0  -0.1693
  C  C201  1  0.233810  0.739930  0.751940  1.0  -0.1303
  C  C202  1  0.179200  0.760460  0.753280  1.0  0.1592
  C  C203  1  0.127000  0.728400  0.752920  1.0  -0.0819
  C  C204  1  0.073380  0.749380  0.752920  1.0  0.1278
  C  C205  1  0.019850  0.716650  0.751840  1.0  -0.143
  C  C206  1  0.978890  0.752310  0.751120  1.0  -0.1808
  C  C207  1  0.006280  0.807840  0.753060  1.0  0.1691
  C  C208  1  0.269720  0.888200  0.754360  1.0  -0.0993
  C  C209  1  0.128590  0.664710  0.752740  1.0  0.1043
  C  C210  1  0.107070  0.613050  0.795840  1.0  -0.1379
  C  C211  1  0.105610  0.554550  0.795420  1.0  -0.0487
  C  C212  1  0.128850  0.547750  0.750880  1.0  -0.1416
  C  C213  1  0.150190  0.599010  0.707280  1.0  -0.064
  C  C214  1  0.150440  0.657620  0.708620  1.0  -0.1372
  C  C215  1  0.128660  0.483640  0.750540  1.0  0.7061
  C  C216  1  0.325600  0.888800  0.768000  1.0  0.0231
  C  C217  1  0.378100  0.910100  0.726400  1.0  -0.1515
  C  C218  1  0.439160  0.910760  0.726880  1.0  -0.1576
  C  C219  1  0.443000  0.895200  0.773000  1.0  -0.0667
  C  C220  1  0.390530  0.870330  0.819340  1.0  -0.117
  C  C221  1  0.330200  0.867800  0.815600  1.0  -0.0917
  C  C222  1  0.974760  0.663060  0.090180  1.0  0.1743
  C  C223  1  0.001310  0.687710  0.037380  1.0  -0.214
  C  C224  1  0.012860  0.828560  0.926580  1.0  -0.197
  C  C225  1  0.039590  0.852850  0.874820  1.0  0.1819
  C  C226  1  0.003000  0.912400  0.754160  1.0  0.194
  C  C227  1  0.973670  0.964870  0.752000  1.0  -0.1712
  C  C228  1  0.014250  0.008130  0.751940  1.0  -0.1314
  C  C229  1  0.067520  0.986260  0.753280  1.0  0.1592
  C  C230  1  0.120080  0.018680  0.752920  1.0  -0.0815
  C  C231  1  0.173700  0.997700  0.752920  1.0  0.1279
  C  C232  1  0.228310  0.031510  0.751840  1.0  -0.1436
  C  C233  1  0.269990  0.996570  0.751120  1.0  -0.1805
  C  C234  1  0.240660  0.939100  0.753060  1.0  0.1671
  C  C235  1  0.975920  0.857440  0.754360  1.0  -0.0999
  C  C236  1  0.118670  0.082550  0.752740  1.0  0.1028
  C  C237  1  0.097090  0.091110  0.795840  1.0  -0.1376
  C  C238  1  0.098970  0.150030  0.795420  1.0  -0.0487
  C  C239  1  0.120270  0.201370  0.750880  1.0  -0.1422
  C  C240  1  0.142530  0.193710  0.707280  1.0  -0.0654
  C  C241  1  0.140940  0.133760  0.708620  1.0  -0.1364
  C  C242  1  0.120800  0.265820  0.750540  1.0  0.7058
  C  C243  1  0.906400  0.843200  0.768000  1.0  0.0234
  C  C244  1  0.895500  0.863500  0.726400  1.0  -0.1512
  C  C245  1  0.833960  0.862360  0.726880  1.0  -0.1562
  C  C246  1  0.784000  0.831800  0.773000  1.0  -0.065
  C  C247  1  0.790130  0.810330  0.819340  1.0  -0.1167
  C  C248  1  0.854200  0.816600  0.815600  1.0  -0.0877
  C  C249  1  0.935060  0.746760  0.090180  1.0  0.1778
  C  C250  1  0.961310  0.774910  0.037380  1.0  -0.2129
  C  C251  1  0.060560  0.744860  0.926580  1.0  -0.1972
  C  C252  1  0.085590  0.772330  0.874820  1.0  0.183
  C  C253  1  0.333440  0.742840  0.254160  1.0  0.1953
  C  C254  1  0.283130  0.774330  0.252000  1.0  -0.1717
  C  C255  1  0.239930  0.733810  0.251940  1.0  -0.1313
  C  C256  1  0.260460  0.679200  0.253280  1.0  0.1584
  C  C257  1  0.228400  0.627000  0.252920  1.0  -0.082
  C  C258  1  0.249380  0.573380  0.252920  1.0  0.1292
  C  C259  1  0.216650  0.519850  0.251840  1.0  -0.144
  C  C260  1  0.252310  0.478890  0.251120  1.0  -0.179
  C  C261  1  0.307840  0.506280  0.253060  1.0  0.1699
  C  C262  1  0.388200  0.769720  0.254360  1.0  -0.0999
  C  C263  1  0.164710  0.628590  0.252740  1.0  0.1024
  C  C264  1  0.113050  0.607070  0.295840  1.0  -0.1368
  C  C265  1  0.054550  0.605610  0.295420  1.0  -0.0482
  C  C266  1  0.047750  0.628850  0.250880  1.0  -0.1429
  C  C267  1  0.099010  0.650190  0.207280  1.0  -0.0646
  C  C268  1  0.157620  0.650440  0.208620  1.0  -0.1378
  C  C269  1  0.983640  0.628660  0.250540  1.0  0.7063
  C  C270  1  0.388800  0.825600  0.268000  1.0  0.0254
  C  C271  1  0.410100  0.878100  0.226400  1.0  -0.1554
  C  C272  1  0.410760  0.939160  0.226880  1.0  -0.1573
  C  C273  1  0.395200  0.943000  0.273000  1.0  -0.063
  C  C274  1  0.370330  0.890530  0.319340  1.0  -0.1181
  C  C275  1  0.367800  0.830200  0.315600  1.0  -0.0901
  C  C276  1  0.163060  0.474760  0.590180  1.0  0.1732
  C  C277  1  0.187710  0.501310  0.537380  1.0  -0.2104
  C  C278  1  0.328560  0.512860  0.426580  1.0  -0.1976
  C  C279  1  0.352850  0.539590  0.374820  1.0  0.184
  C  C280  1  0.412400  0.503000  0.254160  1.0  0.1948
  C  C281  1  0.464870  0.473670  0.252000  1.0  -0.1719
  C  C282  1  0.508130  0.514250  0.251940  1.0  -0.1288
  C  C283  1  0.486260  0.567520  0.253280  1.0  0.1595
  C  C284  1  0.518680  0.620080  0.252920  1.0  -0.0803
  C  C285  1  0.497700  0.673700  0.252920  1.0  0.1276
  C  C286  1  0.531510  0.728310  0.251840  1.0  -0.142
  C  C287  1  0.496570  0.769990  0.251120  1.0  -0.1789
  C  C288  1  0.439100  0.740660  0.253060  1.0  0.1673
  C  C289  1  0.357440  0.475920  0.254360  1.0  -0.0995
  C  C290  1  0.582550  0.618670  0.252740  1.0  0.1026
  C  C291  1  0.591110  0.597090  0.295840  1.0  -0.1384
  C  C292  1  0.650030  0.598970  0.295420  1.0  -0.0486
  C  C293  1  0.701370  0.620270  0.250880  1.0  -0.1406
  C  C294  1  0.693710  0.642530  0.207280  1.0  -0.0646
  C  C295  1  0.633760  0.640940  0.208620  1.0  -0.1352
  C  C296  1  0.765820  0.620800  0.250540  1.0  0.7063
  C  C297  1  0.343200  0.406400  0.268000  1.0  0.0253
  C  C298  1  0.363500  0.395500  0.226400  1.0  -0.1512
  C  C299  1  0.362360  0.333960  0.226880  1.0  -0.1562
  C  C300  1  0.331800  0.284000  0.273000  1.0  -0.0666
  C  C301  1  0.310330  0.290130  0.319340  1.0  -0.1193
  C  C302  1  0.316600  0.354200  0.315600  1.0  -0.09
  C  C303  1  0.246760  0.435060  0.590180  1.0  0.1802
  C  C304  1  0.274910  0.461310  0.537380  1.0  -0.2115
  C  C305  1  0.244860  0.560560  0.426580  1.0  -0.1955
  C  C306  1  0.272330  0.585590  0.374820  1.0  0.1843
  C  C307  1  0.757160  0.166560  0.245840  1.0  0.1937
  C  C308  1  0.725670  0.216870  0.248000  1.0  -0.1682
  C  C309  1  0.766190  0.260070  0.248060  1.0  -0.1319
  C  C310  1  0.820800  0.239540  0.246720  1.0  0.1594
  C  C311  1  0.873000  0.271600  0.247080  1.0  -0.0817
  C  C312  1  0.926620  0.250620  0.247080  1.0  0.1283
  C  C313  1  0.980150  0.283350  0.248160  1.0  -0.1455
  C  C314  1  0.021110  0.247690  0.248880  1.0  -0.1796
  C  C315  1  0.993720  0.192160  0.246940  1.0  0.1676
  C  C316  1  0.730280  0.111800  0.245640  1.0  -0.099
  C  C317  1  0.871410  0.335290  0.247260  1.0  0.1032
  C  C318  1  0.892930  0.386950  0.204160  1.0  -0.137
  C  C319  1  0.894390  0.445450  0.204580  1.0  -0.0475
  C  C320  1  0.871150  0.452250  0.249120  1.0  -0.1424
  C  C321  1  0.849810  0.400990  0.292720  1.0  -0.0621
  C  C322  1  0.849560  0.342380  0.291380  1.0  -0.1383
  C  C323  1  0.871340  0.516360  0.249460  1.0  0.7066
  C  C324  1  0.674400  0.111200  0.232000  1.0  0.0229
  C  C325  1  0.621900  0.089900  0.273600  1.0  -0.1496
  C  C326  1  0.560840  0.089240  0.273120  1.0  -0.1591
  C  C327  1  0.557000  0.104800  0.227000  1.0  -0.0675
  C  C328  1  0.609470  0.129670  0.180660  1.0  -0.1163
  C  C329  1  0.669800  0.132200  0.184400  1.0  -0.0891
  C  C330  1  0.025240  0.336940  0.909820  1.0  0.1743
  C  C331  1  0.998690  0.312290  0.962620  1.0  -0.2127
  C  C332  1  0.987140  0.171440  0.073420  1.0  -0.1973
  C  C333  1  0.960410  0.147150  0.125180  1.0  0.1829
  C  C334  1  0.997000  0.087600  0.245840  1.0  0.1944
  C  C335  1  0.026330  0.035130  0.248000  1.0  -0.1701
  C  C336  1  0.985750  0.991870  0.248060  1.0  -0.1307
  C  C337  1  0.932480  0.013740  0.246720  1.0  0.159
  C  C338  1  0.879920  0.981320  0.247080  1.0  -0.0819
  C  C339  1  0.826300  0.002300  0.247080  1.0  0.1258
  C  C340  1  0.771690  0.968490  0.248160  1.0  -0.1439
  C  C341  1  0.730010  0.003430  0.248880  1.0  -0.1808
  C  C342  1  0.759340  0.060900  0.246940  1.0  0.1682
  C  C343  1  0.024080  0.142560  0.245640  1.0  -0.1002
  C  C344  1  0.881330  0.917450  0.247260  1.0  0.1034
  C  C345  1  0.902910  0.908890  0.204160  1.0  -0.1386
  C  C346  1  0.901030  0.849970  0.204580  1.0  -0.0482
  C  C347  1  0.879730  0.798630  0.249120  1.0  -0.1401
  C  C348  1  0.857470  0.806290  0.292720  1.0  -0.0634
  C  C349  1  0.859060  0.866240  0.291380  1.0  -0.1384
  C  C350  1  0.879200  0.734180  0.249460  1.0  0.7055
  C  C351  1  0.093600  0.156800  0.232000  1.0  0.0234
  C  C352  1  0.104500  0.136500  0.273600  1.0  -0.1511
  C  C353  1  0.166040  0.137640  0.273120  1.0  -0.1576
  C  C354  1  0.216000  0.168200  0.227000  1.0  -0.0652
  C  C355  1  0.209870  0.189670  0.180660  1.0  -0.1165
  C  C356  1  0.145800  0.183400  0.184400  1.0  -0.0862
  C  C357  1  0.064940  0.253240  0.909820  1.0  0.1776
  C  C358  1  0.038690  0.225090  0.962620  1.0  -0.2132
  C  C359  1  0.939440  0.255140  0.073420  1.0  -0.1967
  C  C360  1  0.914410  0.227670  0.125180  1.0  0.1836
  C  C361  1  0.754780  0.504780  0.490440  1.0  0.0609
  C  C362  1  0.727530  0.477530  0.544940  1.0  0.0681
  C  C363  1  0.995220  0.745220  0.009560  1.0  0.0612
  C  C364  1  0.022470  0.772470  0.955060  1.0  0.0682
  C  C365  1  0.245220  0.495220  0.509560  1.0  0.0612
  C  C366  1  0.272470  0.522470  0.455060  1.0  0.0682
  C  C367  1  0.004780  0.254780  0.990440  1.0  0.0609
  C  C368  1  0.977530  0.227530  0.044940  1.0  0.0681
  N  N369  1  0.681270  0.314190  0.745560  1.0  -0.4195
  N  N370  1  0.694520  0.437540  0.745780  1.0  -0.4056
  N  N371  1  0.573170  0.440250  0.745560  1.0  -0.4184
  N  N372  1  0.559700  0.316680  0.745780  1.0  -0.404
  N  N373  1  0.185810  0.818730  0.754440  1.0  -0.4178
  N  N374  1  0.062460  0.805480  0.754220  1.0  -0.4063
  N  N375  1  0.059750  0.926830  0.754440  1.0  -0.4188
  N  N376  1  0.183320  0.940300  0.754220  1.0  -0.4033
  N  N377  1  0.318730  0.685810  0.254440  1.0  -0.4197
  N  N378  1  0.305480  0.562460  0.254220  1.0  -0.4064
  N  N379  1  0.426830  0.559750  0.254440  1.0  -0.4176
  N  N380  1  0.440300  0.683320  0.254220  1.0  -0.4044
  N  N381  1  0.814190  0.181270  0.245560  1.0  -0.4187
  N  N382  1  0.937540  0.194520  0.245780  1.0  -0.4047
  N  N383  1  0.940250  0.073170  0.245560  1.0  -0.419
  N  N384  1  0.816680  0.059700  0.245780  1.0  -0.4043
  N  N385  1  0.808720  0.558720  0.382560  1.0  -0.2762
  N  N386  1  0.673980  0.423980  0.652040  1.0  -0.3179
  N  N387  1  0.941280  0.691280  0.117440  1.0  -0.2773
  N  N388  1  0.076020  0.826020  0.847960  1.0  -0.3187
  N  N389  1  0.191280  0.441280  0.617440  1.0  -0.2773
  N  N390  1  0.326020  0.576020  0.347960  1.0  -0.3187
  N  N391  1  0.058720  0.308720  0.882560  1.0  -0.2762
  N  N392  1  0.923980  0.173980  0.152040  1.0  -0.3179
  O  O393  1  0.018600  0.350680  0.791780  1.0  -0.591
  O  O394  1  0.061350  0.392650  0.706980  1.0  -0.5956
  O  O395  1  0.189620  0.357540  0.791780  1.0  -0.5918
  O  O396  1  0.231670  0.400370  0.706980  1.0  -0.5946
  O  O397  1  0.149320  0.481400  0.708220  1.0  -0.5914
  O  O398  1  0.107350  0.438650  0.793020  1.0  -0.5956
  O  O399  1  0.142460  0.310380  0.708220  1.0  -0.5904
  O  O400  1  0.099630  0.268330  0.793020  1.0  -0.596
  O  O401  1  0.981400  0.649320  0.208220  1.0  -0.5921
  O  O402  1  0.938650  0.607350  0.293020  1.0  -0.5952
  O  O403  1  0.810380  0.642460  0.208220  1.0  -0.5908
  O  O404  1  0.768330  0.599630  0.293020  1.0  -0.5946
  O  O405  1  0.850680  0.518600  0.291780  1.0  -0.5918
  O  O406  1  0.892650  0.561350  0.206980  1.0  -0.5951
  O  O407  1  0.857540  0.689620  0.291780  1.0  -0.5914
  O  O408  1  0.900370  0.731670  0.206980  1.0  -0.5956
