# generated using pymatgen
data_CaH4(C4O3)2
_symmetry_space_group_name_H-M   'P 1'
_cell_length_a   18.65900000
_cell_length_b   11.25100000
_cell_length_c   10.01500000
_cell_angle_alpha   90.00000000
_cell_angle_beta   114.12000000
_cell_angle_gamma   90.00000000
_symmetry_Int_Tables_number   1
_chemical_formula_structural   CaH4(C4O3)2
_chemical_formula_sum   'Ca4 H16 C32 O24'
_cell_volume   1918.90948933
_cell_formula_units_Z   4
loop_
 _symmetry_equiv_pos_site_id
 _symmetry_equiv_pos_as_xyz
  1  'x, y, z'
loop_
 _atom_site_type_symbol
 _atom_site_label
 _atom_site_symmetry_multiplicity
 _atom_site_fract_x
 _atom_site_fract_y
 _atom_site_fract_z
 _atom_site_occupancy
 _atom_site_charge
  Ca  Ca1  1  0.000000  0.500000  0.000000  1.0  1.6477
  Ca  Ca2  1  0.500000  0.000000  0.000000  1.0  1.6477
  Ca  Ca3  1  0.000000  0.500000  0.500000  1.0  1.6477
  Ca  Ca4  1  0.500000  0.000000  0.500000  1.0  1.6477
  H  H5  1  0.202300  0.382300  0.620700  1.0  0.1119
  H  H6  1  0.158800  0.300000  0.168000  1.0  0.314
  H  H7  1  0.702300  0.882300  0.620700  1.0  0.1119
  H  H8  1  0.658800  0.800000  0.168000  1.0  0.314
  H  H9  1  0.797700  0.382300  0.879300  1.0  0.1112
  H  H10  1  0.841200  0.300000  0.332000  1.0  0.3135
  H  H11  1  0.297700  0.882300  0.879300  1.0  0.1112
  H  H12  1  0.341200  0.800000  0.332000  1.0  0.3135
  H  H13  1  0.797700  0.617700  0.379300  1.0  0.1112
  H  H14  1  0.841200  0.700000  0.832000  1.0  0.3137
  H  H15  1  0.297700  0.117700  0.379300  1.0  0.1112
  H  H16  1  0.341200  0.200000  0.832000  1.0  0.3137
  H  H17  1  0.202300  0.617700  0.120700  1.0  0.1118
  H  H18  1  0.158800  0.700000  0.668000  1.0  0.3146
  H  H19  1  0.702300  0.117700  0.120700  1.0  0.1118
  H  H20  1  0.658800  0.200000  0.668000  1.0  0.3146
  C  C21  1  0.122530  0.410830  0.337380  1.0  0.7342
  C  C22  1  0.189390  0.328220  0.420300  1.0  -0.2739
  C  C23  1  0.218490  0.248070  0.347120  1.0  0.2927
  C  C24  1  0.221470  0.329060  0.572210  1.0  -0.1286
  C  C25  1  0.622530  0.910830  0.337380  1.0  0.7342
  C  C26  1  0.689390  0.828220  0.420300  1.0  -0.2739
  C  C27  1  0.718490  0.748070  0.347120  1.0  0.2927
  C  C28  1  0.721470  0.829060  0.572210  1.0  -0.1286
  C  C29  1  0.877470  0.410830  0.162620  1.0  0.7342
  C  C30  1  0.810610  0.328220  0.079700  1.0  -0.2742
  C  C31  1  0.781510  0.248070  0.152880  1.0  0.2934
  C  C32  1  0.778530  0.329060  0.927790  1.0  -0.1291
  C  C33  1  0.377470  0.910830  0.162620  1.0  0.7342
  C  C34  1  0.310610  0.828220  0.079700  1.0  -0.2742
  C  C35  1  0.281510  0.748070  0.152880  1.0  0.2934
  C  C36  1  0.278530  0.829060  0.927790  1.0  -0.1291
  C  C37  1  0.877470  0.589170  0.662620  1.0  0.7329
  C  C38  1  0.810610  0.671780  0.579700  1.0  -0.2737
  C  C39  1  0.781510  0.751930  0.652880  1.0  0.2921
  C  C40  1  0.778530  0.670940  0.427790  1.0  -0.1286
  C  C41  1  0.377470  0.089170  0.662620  1.0  0.7329
  C  C42  1  0.310610  0.171780  0.579700  1.0  -0.2737
  C  C43  1  0.281510  0.251930  0.652880  1.0  0.2921
  C  C44  1  0.278530  0.170940  0.427790  1.0  -0.1286
  C  C45  1  0.122530  0.589170  0.837380  1.0  0.7333
  C  C46  1  0.189390  0.671780  0.920300  1.0  -0.2738
  C  C47  1  0.218490  0.751930  0.847120  1.0  0.2917
  C  C48  1  0.221470  0.670940  0.072210  1.0  -0.1278
  C  C49  1  0.622530  0.089170  0.837380  1.0  0.7333
  C  C50  1  0.689390  0.171780  0.920300  1.0  -0.2738
  C  C51  1  0.718490  0.251930  0.847120  1.0  0.2917
  C  C52  1  0.721470  0.170940  0.072210  1.0  -0.1278
  O  O53  1  0.100950  0.414000  0.199970  1.0  -0.6592
  O  O54  1  0.092610  0.470460  0.405210  1.0  -0.7223
  O  O55  1  0.190150  0.243070  0.198850  1.0  -0.4921
  O  O56  1  0.600950  0.914000  0.199970  1.0  -0.6592
  O  O57  1  0.592610  0.970460  0.405210  1.0  -0.7223
  O  O58  1  0.690150  0.743070  0.198850  1.0  -0.4921
  O  O59  1  0.899050  0.414000  0.300030  1.0  -0.6587
  O  O60  1  0.907390  0.470460  0.094790  1.0  -0.722
  O  O61  1  0.809850  0.243070  0.301150  1.0  -0.4912
  O  O62  1  0.399050  0.914000  0.300030  1.0  -0.6587
  O  O63  1  0.407390  0.970460  0.094790  1.0  -0.722
  O  O64  1  0.309850  0.743070  0.301150  1.0  -0.4912
  O  O65  1  0.899050  0.586000  0.800030  1.0  -0.6585
  O  O66  1  0.907390  0.529540  0.594790  1.0  -0.7219
  O  O67  1  0.809850  0.756930  0.801150  1.0  -0.4915
  O  O68  1  0.399050  0.086000  0.800030  1.0  -0.6585
  O  O69  1  0.407390  0.029540  0.594790  1.0  -0.7219
  O  O70  1  0.309850  0.256930  0.801150  1.0  -0.4915
  O  O71  1  0.100950  0.586000  0.699970  1.0  -0.6585
  O  O72  1  0.092610  0.529540  0.905210  1.0  -0.7225
  O  O73  1  0.190150  0.756930  0.698850  1.0  -0.4937
  O  O74  1  0.600950  0.086000  0.699970  1.0  -0.6585
  O  O75  1  0.592610  0.029540  0.905210  1.0  -0.7225
  O  O76  1  0.690150  0.256930  0.698850  1.0  -0.4937
