# generated using pymatgen
data_Zn5H4(C10O9)2
_symmetry_space_group_name_H-M   'P 1'
_cell_length_a   7.43740000
_cell_length_b   16.42830000
_cell_length_c   14.55300000
_cell_angle_alpha   90.00000000
_cell_angle_beta   94.83700000
_cell_angle_gamma   90.00000000
_symmetry_Int_Tables_number   1
_chemical_formula_structural   Zn5H4(C10O9)2
_chemical_formula_sum   'Zn10 H8 C40 O36'
_cell_volume   1771.80875385
_cell_formula_units_Z   2
loop_
 _symmetry_equiv_pos_site_id
 _symmetry_equiv_pos_as_xyz
  1  'x, y, z'
loop_
 _atom_site_type_symbol
 _atom_site_label
 _atom_site_symmetry_multiplicity
 _atom_site_fract_x
 _atom_site_fract_y
 _atom_site_fract_z
 _atom_site_occupancy
 _atom_site_charge
  Zn  Zn1  1  0.192180  0.127910  0.479740  1.0  1.0991
  Zn  Zn2  1  0.222440  0.018270  0.681210  1.0  1.0874
  Zn  Zn3  1  0.307820  0.627910  0.020260  1.0  1.0981
  Zn  Zn4  1  0.277560  0.518270  0.818790  1.0  1.0888
  Zn  Zn5  1  0.807820  0.872090  0.520260  1.0  1.0947
  Zn  Zn6  1  0.777560  0.981730  0.318790  1.0  1.0888
  Zn  Zn7  1  0.692180  0.372090  0.979740  1.0  1.0959
  Zn  Zn8  1  0.722440  0.481730  0.181210  1.0  1.0874
  Zn  Zn9  1  0.500000  0.000000  0.500000  1.0  1.1482
  Zn  Zn10  1  0.000000  0.500000  0.000000  1.0  1.1481
  H  H11  1  0.429900  0.293300  0.675100  1.0  0.1289
  H  H12  1  0.047500  0.274900  0.728500  1.0  0.1218
  H  H13  1  0.070100  0.793300  0.824900  1.0  0.1275
  H  H14  1  0.452500  0.774900  0.771500  1.0  0.1229
  H  H15  1  0.570100  0.706700  0.324900  1.0  0.1281
  H  H16  1  0.952500  0.725100  0.271500  1.0  0.1229
  H  H17  1  0.929900  0.206700  0.175100  1.0  0.1295
  H  H18  1  0.547500  0.225100  0.228500  1.0  0.1219
  C  C19  1  0.832300  0.340200  0.761100  1.0  -0.0694
  C  C20  1  0.945800  0.400220  0.818600  1.0  0.7579
  C  C21  1  0.946200  0.153970  0.627500  1.0  0.732
  C  C22  1  0.643200  0.345010  0.745500  1.0  -0.0742
  C  C23  1  0.831000  0.219220  0.666200  1.0  -0.0319
  C  C24  1  0.534700  0.163360  0.593500  1.0  0.722
  C  C25  1  0.554000  0.288560  0.688000  1.0  -0.0136
  C  C26  1  0.922300  0.277510  0.719700  1.0  -0.0516
  C  C27  1  0.643900  0.224810  0.648900  1.0  -0.1334
  C  C28  1  0.527700  0.407190  0.787100  1.0  0.711
  C  C29  1  0.667700  0.840200  0.738900  1.0  -0.0686
  C  C30  1  0.554200  0.900220  0.681400  1.0  0.7564
  C  C31  1  0.553800  0.653970  0.872500  1.0  0.732
  C  C32  1  0.856800  0.845010  0.754500  1.0  -0.0742
  C  C33  1  0.669000  0.719220  0.833800  1.0  -0.0308
  C  C34  1  0.965300  0.663360  0.906500  1.0  0.7229
  C  C35  1  0.946000  0.788560  0.812000  1.0  -0.0115
  C  C36  1  0.577700  0.777510  0.780300  1.0  -0.0539
  C  C37  1  0.856100  0.724810  0.851100  1.0  -0.1334
  C  C38  1  0.972300  0.907190  0.712900  1.0  0.7109
  C  C39  1  0.167700  0.659800  0.238900  1.0  -0.0693
  C  C40  1  0.054200  0.599780  0.181400  1.0  0.7565
  C  C41  1  0.053800  0.846030  0.372500  1.0  0.7322
  C  C42  1  0.356800  0.654990  0.254500  1.0  -0.0741
  C  C43  1  0.169000  0.780780  0.333800  1.0  -0.0305
  C  C44  1  0.465300  0.836640  0.406500  1.0  0.7237
  C  C45  1  0.446000  0.711440  0.312000  1.0  -0.0119
  C  C46  1  0.077700  0.722490  0.280300  1.0  -0.0539
  C  C47  1  0.356100  0.775190  0.351100  1.0  -0.1332
  C  C48  1  0.472300  0.592810  0.212900  1.0  0.7108
  C  C49  1  0.332300  0.159800  0.261100  1.0  -0.0696
  C  C50  1  0.445800  0.099780  0.318600  1.0  0.7578
  C  C51  1  0.446200  0.346030  0.127500  1.0  0.7324
  C  C52  1  0.143200  0.154990  0.245500  1.0  -0.0741
  C  C53  1  0.331000  0.280780  0.166200  1.0  -0.0315
  C  C54  1  0.034700  0.336640  0.093500  1.0  0.7228
  C  C55  1  0.054000  0.211440  0.188000  1.0  -0.0138
  C  C56  1  0.422300  0.222490  0.219700  1.0  -0.0516
  C  C57  1  0.143900  0.275190  0.148900  1.0  -0.1334
  C  C58  1  0.027700  0.092810  0.287100  1.0  0.7116
  O  O59  1  0.246900  0.017470  0.546360  1.0  -0.7177
  O  O60  1  0.603900  0.095230  0.582100  1.0  -0.5693
  O  O61  1  0.425600  0.449590  0.733980  1.0  -0.5721
  O  O62  1  0.018600  0.105470  0.684260  1.0  -0.6132
  O  O63  1  0.525000  0.413220  0.873230  1.0  -0.6183
  O  O64  1  0.902000  0.414850  0.898110  1.0  -0.637
  O  O65  1  0.075800  0.429630  0.783390  1.0  -0.6105
  O  O66  1  0.378700  0.185200  0.563300  1.0  -0.6175
  O  O67  1  0.969400  0.158240  0.543500  1.0  -0.6033
  O  O68  1  0.253100  0.517470  0.953640  1.0  -0.7173
  O  O69  1  0.896100  0.595230  0.917900  1.0  -0.5688
  O  O70  1  0.074400  0.949590  0.766020  1.0  -0.5727
  O  O71  1  0.481400  0.605470  0.815740  1.0  -0.6127
  O  O72  1  0.975000  0.913220  0.626770  1.0  -0.6204
  O  O73  1  0.598000  0.914850  0.601890  1.0  -0.6371
  O  O74  1  0.424200  0.929630  0.716610  1.0  -0.6103
  O  O75  1  0.121300  0.685200  0.936700  1.0  -0.618
  O  O76  1  0.530600  0.658240  0.956500  1.0  -0.6036
  O  O77  1  0.753100  0.982530  0.453640  1.0  -0.7164
  O  O78  1  0.396100  0.904770  0.417900  1.0  -0.5686
  O  O79  1  0.574400  0.550410  0.266020  1.0  -0.5733
  O  O80  1  0.981400  0.894530  0.315740  1.0  -0.6132
  O  O81  1  0.475000  0.586780  0.126770  1.0  -0.6196
  O  O82  1  0.098000  0.585150  0.101890  1.0  -0.6372
  O  O83  1  0.924200  0.570370  0.216610  1.0  -0.6111
  O  O84  1  0.621300  0.814800  0.436700  1.0  -0.619
  O  O85  1  0.030600  0.841760  0.456500  1.0  -0.6037
  O  O86  1  0.746900  0.482530  0.046360  1.0  -0.7167
  O  O87  1  0.103900  0.404770  0.082100  1.0  -0.569
  O  O88  1  0.925600  0.050410  0.233980  1.0  -0.5721
  O  O89  1  0.518600  0.394530  0.184260  1.0  -0.6125
  O  O90  1  0.025000  0.086780  0.373230  1.0  -0.6189
  O  O91  1  0.402000  0.085150  0.398110  1.0  -0.6373
  O  O92  1  0.575800  0.070370  0.283390  1.0  -0.6094
  O  O93  1  0.878700  0.314800  0.063300  1.0  -0.6179
  O  O94  1  0.469400  0.341760  0.043500  1.0  -0.6035
