# generated using pymatgen
data_SrH2C2N4O3
_symmetry_space_group_name_H-M   'P 1'
_cell_length_a   9.27320000
_cell_length_b   17.50900000
_cell_length_c   18.42850000
_cell_angle_alpha   106.03100000
_cell_angle_beta   90.00000000
_cell_angle_gamma   90.00000000
_symmetry_Int_Tables_number   1
_chemical_formula_structural   SrH2C2N4O3
_chemical_formula_sum   'Sr16 H32 C32 N64 O48'
_cell_volume   2875.77660415
_cell_formula_units_Z   16
loop_
 _symmetry_equiv_pos_site_id
 _symmetry_equiv_pos_as_xyz
  1  'x, y, z'
loop_
 _atom_site_type_symbol
 _atom_site_label
 _atom_site_symmetry_multiplicity
 _atom_site_fract_x
 _atom_site_fract_y
 _atom_site_fract_z
 _atom_site_occupancy
 _atom_site_charge
  Sr  Sr1  1  0.337100  0.866930  0.674820  1.0  1.3375
  Sr  Sr2  1  0.841240  0.622330  0.823800  1.0  1.3953
  Sr  Sr3  1  0.504780  0.588180  0.673430  1.0  1.4113
  Sr  Sr4  1  0.502480  0.075720  0.663260  1.0  1.5256
  Sr  Sr5  1  0.837100  0.133070  0.825180  1.0  1.3386
  Sr  Sr6  1  0.341240  0.377670  0.676200  1.0  1.3959
  Sr  Sr7  1  0.004780  0.411820  0.826570  1.0  1.4106
  Sr  Sr8  1  0.002480  0.924280  0.836740  1.0  1.5264
  Sr  Sr9  1  0.662900  0.133070  0.325180  1.0  1.3403
  Sr  Sr10  1  0.158760  0.377670  0.176200  1.0  1.3957
  Sr  Sr11  1  0.495220  0.411820  0.326570  1.0  1.41
  Sr  Sr12  1  0.497520  0.924280  0.336740  1.0  1.5276
  Sr  Sr13  1  0.162900  0.866930  0.174820  1.0  1.3373
  Sr  Sr14  1  0.658760  0.622330  0.323800  1.0  1.3952
  Sr  Sr15  1  0.995220  0.588180  0.173430  1.0  1.4109
  Sr  Sr16  1  0.997520  0.075720  0.163260  1.0  1.5265
  H  H17  1  0.008100  0.913900  0.665400  1.0  0.4684
  H  H18  1  0.013400  0.843300  0.679300  1.0  0.4714
  H  H19  1  0.333400  0.949500  0.832200  1.0  0.4591
  H  H20  1  0.320100  0.852500  0.834600  1.0  0.3478
  H  H21  1  0.499500  0.657200  0.854400  1.0  0.3605
  H  H22  1  0.548800  0.587400  0.844500  1.0  0.4726
  H  H23  1  0.848400  0.568700  0.650400  1.0  0.4646
  H  H24  1  0.816200  0.645000  0.667200  1.0  0.4791
  H  H25  1  0.508100  0.086100  0.834600  1.0  0.4667
  H  H26  1  0.513400  0.156700  0.820700  1.0  0.4727
  H  H27  1  0.833400  0.050500  0.667800  1.0  0.4608
  H  H28  1  0.820100  0.147500  0.665400  1.0  0.3455
  H  H29  1  0.999500  0.342800  0.645600  1.0  0.3616
  H  H30  1  0.048800  0.412600  0.655500  1.0  0.4722
  H  H31  1  0.348400  0.431300  0.849600  1.0  0.4635
  H  H32  1  0.316200  0.355000  0.832800  1.0  0.4803
  H  H33  1  0.991900  0.086100  0.334600  1.0  0.4658
  H  H34  1  0.986600  0.156700  0.320700  1.0  0.4709
  H  H35  1  0.666667  0.050500  0.167800  1.0  0.4616
  H  H36  1  0.679900  0.147500  0.165400  1.0  0.3463
  H  H37  1  0.500500  0.342800  0.145600  1.0  0.363
  H  H38  1  0.451200  0.412600  0.155500  1.0  0.4726
  H  H39  1  0.151600  0.431300  0.349600  1.0  0.4647
  H  H40  1  0.183800  0.355000  0.332800  1.0  0.4802
  H  H41  1  0.491900  0.913900  0.165400  1.0  0.4681
  H  H42  1  0.486600  0.843300  0.179300  1.0  0.4701
  H  H43  1  0.166600  0.949500  0.332200  1.0  0.4605
  H  H44  1  0.179900  0.852500  0.334600  1.0  0.3506
  H  H45  1  0.000500  0.657200  0.354400  1.0  0.3614
  H  H46  1  0.951200  0.587400  0.344500  1.0  0.4726
  H  H47  1  0.651600  0.568700  0.150400  1.0  0.4642
  H  H48  1  0.683800  0.645000  0.167200  1.0  0.4796
  C  C49  1  0.669850  0.855790  0.758880  1.0  0.2067
  C  C50  1  0.674870  0.936220  0.744140  1.0  0.6506
  C  C51  1  0.174510  0.645690  0.760160  1.0  0.2026
  C  C52  1  0.185640  0.565040  0.769080  1.0  0.6537
  C  C53  1  0.583440  0.643140  0.509620  1.0  0.2212
  C  C54  1  0.626610  0.558160  0.486330  1.0  0.6489
  C  C55  1  0.236920  0.846470  0.487180  1.0  0.2016
  C  C56  1  0.323570  0.924250  0.509580  1.0  0.6524
  C  C57  1  0.169850  0.144210  0.741120  1.0  0.2056
  C  C58  1  0.174870  0.063780  0.755860  1.0  0.6507
  C  C59  1  0.674510  0.354310  0.739840  1.0  0.2013
  C  C60  1  0.685640  0.434960  0.730920  1.0  0.6535
  C  C61  1  0.083440  0.356860  0.990380  1.0  0.2211
  C  C62  1  0.126610  0.441840  0.013670  1.0  0.6487
  C  C63  1  0.736920  0.153530  0.012820  1.0  0.2017
  C  C64  1  0.823570  0.075750  0.990420  1.0  0.6536
  C  C65  1  0.330150  0.144210  0.241120  1.0  0.2048
  C  C66  1  0.325130  0.063780  0.255860  1.0  0.6505
  C  C67  1  0.825490  0.354310  0.239840  1.0  0.2016
  C  C68  1  0.814360  0.434960  0.230920  1.0  0.6534
  C  C69  1  0.416560  0.356860  0.490380  1.0  0.2206
  C  C70  1  0.373390  0.441840  0.513670  1.0  0.6497
  C  C71  1  0.763080  0.153530  0.512820  1.0  0.2024
  C  C72  1  0.676430  0.075750  0.490420  1.0  0.6535
  C  C73  1  0.830150  0.855790  0.258880  1.0  0.206
  C  C74  1  0.825130  0.936220  0.244140  1.0  0.6505
  C  C75  1  0.325490  0.645690  0.260160  1.0  0.203
  C  C76  1  0.314360  0.565040  0.269080  1.0  0.6536
  C  C77  1  0.916560  0.643140  0.009620  1.0  0.2208
  C  C78  1  0.873390  0.558160  0.986330  1.0  0.6497
  C  C79  1  0.263080  0.846470  0.987180  1.0  0.2023
  C  C80  1  0.176430  0.924250  0.009580  1.0  0.6523
  N  N81  1  0.557930  0.806390  0.737600  1.0  -0.3107
  N  N82  1  0.595830  0.741780  0.758510  1.0  -0.122
  N  N83  1  0.726120  0.754080  0.791510  1.0  -0.128
  N  N84  1  0.773870  0.826480  0.792460  1.0  -0.3546
  N  N85  1  0.265930  0.675410  0.720630  1.0  -0.3269
  N  N86  1  0.218090  0.750070  0.726620  1.0  -0.1096
  N  N87  1  0.103350  0.762950  0.770450  1.0  -0.1323
  N  N88  1  0.071350  0.698270  0.792030  1.0  -0.3377
  N  N89  1  0.524500  0.678960  0.575940  1.0  -0.3762
  N  N90  1  0.506110  0.754370  0.573470  1.0  -0.078
  N  N91  1  0.554980  0.762680  0.509540  1.0  -0.0944
  N  N92  1  0.605100  0.692230  0.467480  1.0  -0.3734
  N  N93  1  0.206900  0.806870  0.536230  1.0  -0.3409
  N  N94  1  0.129430  0.743530  0.496590  1.0  -0.1526
  N  N95  1  0.114460  0.748030  0.426960  1.0  -0.1068
  N  N96  1  0.182300  0.813370  0.420320  1.0  -0.2651
  N  N97  1  0.057930  0.193610  0.762400  1.0  -0.3099
  N  N98  1  0.095830  0.258220  0.741490  1.0  -0.1246
  N  N99  1  0.226120  0.245920  0.708490  1.0  -0.1286
  N  N100  1  0.273870  0.173520  0.707540  1.0  -0.3552
  N  N101  1  0.765930  0.324590  0.779370  1.0  -0.3274
  N  N102  1  0.718090  0.249930  0.773380  1.0  -0.1296
  N  N103  1  0.603350  0.237050  0.729550  1.0  -0.1325
  N  N104  1  0.571350  0.301730  0.707970  1.0  -0.3356
  N  N105  1  0.024500  0.321040  0.924060  1.0  -0.3756
  N  N106  1  0.006110  0.245630  0.926530  1.0  -0.0776
  N  N107  1  0.054980  0.237320  0.990460  1.0  -0.0954
  N  N108  1  0.105100  0.307770  0.032520  1.0  -0.3697
  N  N109  1  0.706900  0.193130  0.963770  1.0  -0.3403
  N  N110  1  0.629430  0.256470  0.003410  1.0  -0.1536
  N  N111  1  0.614460  0.251970  0.073040  1.0  -0.1043
  N  N112  1  0.682300  0.186630  0.079680  1.0  -0.2657
  N  N113  1  0.442070  0.193610  0.262400  1.0  -0.3117
  N  N114  1  0.404170  0.258220  0.241490  1.0  -0.1276
  N  N115  1  0.273880  0.245920  0.208490  1.0  -0.1305
  N  N116  1  0.226130  0.173520  0.207540  1.0  -0.3539
  N  N117  1  0.734070  0.324590  0.279370  1.0  -0.327
  N  N118  1  0.781910  0.249930  0.273380  1.0  -0.1287
  N  N119  1  0.896650  0.237050  0.229550  1.0  -0.1309
  N  N120  1  0.928650  0.301730  0.207970  1.0  -0.3372
  N  N121  1  0.475500  0.321040  0.424060  1.0  -0.3754
  N  N122  1  0.493890  0.245630  0.426530  1.0  -0.0777
  N  N123  1  0.445020  0.237320  0.490460  1.0  -0.0962
  N  N124  1  0.394900  0.307770  0.532520  1.0  -0.3716
  N  N125  1  0.793100  0.193130  0.463770  1.0  -0.3389
  N  N126  1  0.870570  0.256470  0.503410  1.0  -0.1527
  N  N127  1  0.885540  0.251970  0.573040  1.0  -0.103
  N  N128  1  0.817700  0.186630  0.579680  1.0  -0.2656
  N  N129  1  0.942070  0.806390  0.237600  1.0  -0.3127
  N  N130  1  0.904170  0.741780  0.258510  1.0  -0.1247
  N  N131  1  0.773880  0.754080  0.291510  1.0  -0.1304
  N  N132  1  0.726130  0.826480  0.292460  1.0  -0.3531
  N  N133  1  0.234070  0.675410  0.220630  1.0  -0.3273
  N  N134  1  0.281910  0.750070  0.226620  1.0  -0.109
  N  N135  1  0.396650  0.762950  0.270450  1.0  -0.1307
  N  N136  1  0.428650  0.698270  0.292030  1.0  -0.3379
  N  N137  1  0.975500  0.678960  0.075940  1.0  -0.3756
  N  N138  1  0.993890  0.754370  0.073470  1.0  -0.078
  N  N139  1  0.945020  0.762680  0.009540  1.0  -0.0955
  N  N140  1  0.894900  0.692230  0.967480  1.0  -0.3735
  N  N141  1  0.293100  0.806870  0.036230  1.0  -0.3395
  N  N142  1  0.370570  0.743530  0.996590  1.0  -0.1504
  N  N143  1  0.385540  0.748030  0.926960  1.0  -0.1042
  N  N144  1  0.317700  0.813370  0.920320  1.0  -0.2648
  O  O145  1  0.575500  0.952700  0.704900  1.0  -0.6393
  O  O146  1  0.779200  0.980200  0.774900  1.0  -0.6953
  O  O147  1  0.293400  0.524600  0.741400  1.0  -0.6654
  O  O148  1  0.082000  0.541900  0.802700  1.0  -0.6668
  O  O149  1  0.636300  0.523500  0.536600  1.0  -0.643
  O  O150  1  0.651200  0.528100  0.416600  1.0  -0.7196
  O  O151  1  0.371400  0.944900  0.575600  1.0  -0.6933
  O  O152  1  0.337800  0.959600  0.459700  1.0  -0.6701
  O  O153  1  0.047890  0.881340  0.689570  1.0  -0.9222
  O  O154  1  0.288220  0.907650  0.817660  1.0  -0.933
  O  O155  1  0.561160  0.615580  0.826720  1.0  -0.8664
  O  O156  1  0.795270  0.609650  0.681950  1.0  -0.8994
  O  O157  1  0.075500  0.047300  0.795100  1.0  -0.6401
  O  O158  1  0.279200  0.019800  0.725100  1.0  -0.6961
  O  O159  1  0.793400  0.475400  0.758600  1.0  -0.6653
  O  O160  1  0.582000  0.458100  0.697300  1.0  -0.6669
  O  O161  1  0.136300  0.476500  0.963400  1.0  -0.6432
  O  O162  1  0.151200  0.471900  0.083400  1.0  -0.7206
  O  O163  1  0.871400  0.055100  0.924400  1.0  -0.6938
  O  O164  1  0.837800  0.040400  0.040300  1.0  -0.6707
  O  O165  1  0.547890  0.118660  0.810430  1.0  -0.922
  O  O166  1  0.788220  0.092350  0.682340  1.0  -0.9336
  O  O167  1  0.061160  0.384420  0.673280  1.0  -0.8645
  O  O168  1  0.295270  0.390350  0.818050  1.0  -0.8983
  O  O169  1  0.424500  0.047300  0.295100  1.0  -0.6408
  O  O170  1  0.220800  0.019800  0.225100  1.0  -0.6969
  O  O171  1  0.706600  0.475400  0.258600  1.0  -0.664
  O  O172  1  0.918000  0.458100  0.197300  1.0  -0.6669
  O  O173  1  0.363700  0.476500  0.463400  1.0  -0.6435
  O  O174  1  0.348800  0.471900  0.583400  1.0  -0.7221
  O  O175  1  0.628600  0.055100  0.424400  1.0  -0.6946
  O  O176  1  0.662200  0.040400  0.540300  1.0  -0.6706
  O  O177  1  0.952110  0.118660  0.310430  1.0  -0.924
  O  O178  1  0.711780  0.092350  0.182340  1.0  -0.9318
  O  O179  1  0.438840  0.384420  0.173280  1.0  -0.8655
  O  O180  1  0.204730  0.390350  0.318050  1.0  -0.8976
  O  O181  1  0.924500  0.952700  0.204900  1.0  -0.6415
  O  O182  1  0.720800  0.980200  0.274900  1.0  -0.6956
  O  O183  1  0.206600  0.524600  0.241400  1.0  -0.6643
  O  O184  1  0.418000  0.541900  0.302700  1.0  -0.6666
  O  O185  1  0.863700  0.523500  0.036600  1.0  -0.6432
  O  O186  1  0.848800  0.528100  0.916600  1.0  -0.7202
  O  O187  1  0.128600  0.944900  0.075600  1.0  -0.6942
  O  O188  1  0.162200  0.959600  0.959700  1.0  -0.67
  O  O189  1  0.452110  0.881340  0.189570  1.0  -0.9245
  O  O190  1  0.211780  0.907650  0.317660  1.0  -0.9319
  O  O191  1  0.938840  0.615580  0.326720  1.0  -0.8655
  O  O192  1  0.704730  0.609650  0.181950  1.0  -0.8974
