# generated using pymatgen
data_SrC2(N2O)2
_symmetry_space_group_name_H-M   'P 1'
_cell_length_a   8.86010000
_cell_length_b   12.98540000
_cell_length_c   12.98540000
_cell_angle_alpha   90.00000000
_cell_angle_beta   90.00000000
_cell_angle_gamma   90.00000000
_symmetry_Int_Tables_number   1
_chemical_formula_structural   SrC2(N2O)2
_chemical_formula_sum   'Sr8 C16 N32 O16'
_cell_volume   1493.99549466
_cell_formula_units_Z   8
loop_
 _symmetry_equiv_pos_site_id
 _symmetry_equiv_pos_as_xyz
  1  'x, y, z'
loop_
 _atom_site_type_symbol
 _atom_site_label
 _atom_site_symmetry_multiplicity
 _atom_site_fract_x
 _atom_site_fract_y
 _atom_site_fract_z
 _atom_site_occupancy
 _atom_site_charge
  Sr  Sr1  1  0.713590  0.048830  0.944940  1.0  1.5185
  Sr  Sr2  1  0.713590  0.451170  0.555060  1.0  1.5199
  Sr  Sr3  1  0.713590  0.555060  0.048830  1.0  1.5176
  Sr  Sr4  1  0.713590  0.944940  0.451170  1.0  1.5182
  Sr  Sr5  1  0.286410  0.951170  0.055060  1.0  1.52
  Sr  Sr6  1  0.286410  0.548830  0.444940  1.0  1.5188
  Sr  Sr7  1  0.286410  0.444940  0.951170  1.0  1.5182
  Sr  Sr8  1  0.286410  0.055060  0.548830  1.0  1.518
  C  C9  1  0.623400  0.991500  0.196200  1.0  0.6622
  C  C10  1  0.792100  0.991110  0.196430  1.0  0.1965
  C  C11  1  0.623400  0.508500  0.303800  1.0  0.6626
  C  C12  1  0.792100  0.508890  0.303570  1.0  0.1966
  C  C13  1  0.623400  0.303800  0.991500  1.0  0.6624
  C  C14  1  0.792100  0.303570  0.991110  1.0  0.1966
  C  C15  1  0.623400  0.196200  0.508500  1.0  0.6624
  C  C16  1  0.792100  0.196430  0.508890  1.0  0.1965
  C  C17  1  0.376600  0.008500  0.803800  1.0  0.6626
  C  C18  1  0.207900  0.008890  0.803570  1.0  0.1949
  C  C19  1  0.376600  0.491500  0.696200  1.0  0.6623
  C  C20  1  0.207900  0.491110  0.696430  1.0  0.1948
  C  C21  1  0.376600  0.696200  0.008500  1.0  0.6625
  C  C22  1  0.207900  0.696430  0.008890  1.0  0.1949
  C  C23  1  0.376600  0.803800  0.491500  1.0  0.6624
  C  C24  1  0.207900  0.803570  0.491110  1.0  0.1949
  N  N25  1  0.876700  0.997800  0.112060  1.0  -0.3591
  N  N26  1  0.874200  0.981860  0.281080  1.0  -0.3572
  N  N27  1  0.018500  0.992410  0.147320  1.0  -0.1619
  N  N28  1  0.017700  0.982960  0.247780  1.0  -0.1071
  N  N29  1  0.876700  0.502200  0.387940  1.0  -0.3591
  N  N30  1  0.874200  0.518140  0.218920  1.0  -0.3564
  N  N31  1  0.018500  0.507590  0.352680  1.0  -0.1616
  N  N32  1  0.017700  0.517040  0.252220  1.0  -0.1059
  N  N33  1  0.876700  0.387940  0.997800  1.0  -0.358
  N  N34  1  0.874200  0.218920  0.981860  1.0  -0.3559
  N  N35  1  0.018500  0.352680  0.992410  1.0  -0.1608
  N  N36  1  0.017700  0.252220  0.982960  1.0  -0.1041
  N  N37  1  0.876700  0.112060  0.502200  1.0  -0.3578
  N  N38  1  0.874200  0.281080  0.518140  1.0  -0.3546
  N  N39  1  0.018500  0.147320  0.507590  1.0  -0.1603
  N  N40  1  0.017700  0.247780  0.517040  1.0  -0.1059
  N  N41  1  0.123300  0.002200  0.887940  1.0  -0.3593
  N  N42  1  0.125800  0.018140  0.718920  1.0  -0.3572
  N  N43  1  0.981500  0.007590  0.852680  1.0  -0.1615
  N  N44  1  0.982300  0.017040  0.752220  1.0  -0.107
  N  N45  1  0.123300  0.497800  0.612060  1.0  -0.3591
  N  N46  1  0.125800  0.481860  0.781080  1.0  -0.3573
  N  N47  1  0.981500  0.492410  0.647320  1.0  -0.1608
  N  N48  1  0.982300  0.482960  0.747780  1.0  -0.1085
  N  N49  1  0.123300  0.612060  0.002200  1.0  -0.3578
  N  N50  1  0.125800  0.781080  0.018140  1.0  -0.3553
  N  N51  1  0.981500  0.647320  0.007590  1.0  -0.1605
  N  N52  1  0.982300  0.747780  0.017040  1.0  -0.1068
  N  N53  1  0.123300  0.887940  0.497800  1.0  -0.3583
  N  N54  1  0.125800  0.718920  0.481860  1.0  -0.3564
  N  N55  1  0.981500  0.852680  0.492410  1.0  -0.1593
  N  N56  1  0.982300  0.752220  0.482960  1.0  -0.1065
  O  O57  1  0.558480  0.998720  0.110470  1.0  -0.7246
  O  O58  1  0.560140  0.983860  0.282230  1.0  -0.6705
  O  O59  1  0.558480  0.501280  0.389530  1.0  -0.7244
  O  O60  1  0.560140  0.516140  0.217770  1.0  -0.6715
  O  O61  1  0.558480  0.389530  0.998720  1.0  -0.7227
  O  O62  1  0.560140  0.217770  0.983860  1.0  -0.6706
  O  O63  1  0.558480  0.110470  0.501280  1.0  -0.7224
  O  O64  1  0.560140  0.282230  0.516140  1.0  -0.6708
  O  O65  1  0.441520  0.001280  0.889530  1.0  -0.7241
  O  O66  1  0.439860  0.016140  0.717770  1.0  -0.672
  O  O67  1  0.441520  0.498720  0.610470  1.0  -0.7246
  O  O68  1  0.439860  0.483860  0.782230  1.0  -0.6727
  O  O69  1  0.441520  0.610470  0.001280  1.0  -0.7226
  O  O70  1  0.439860  0.782230  0.016140  1.0  -0.671
  O  O71  1  0.441520  0.889530  0.498720  1.0  -0.7215
  O  O72  1  0.439860  0.717770  0.483860  1.0  -0.6714
