# generated using pymatgen
data_CuH20(C3N)8
_symmetry_space_group_name_H-M   'P 1'
_cell_length_a   13.08360000
_cell_length_b   13.08360000
_cell_length_c   8.09160000
_cell_angle_alpha   90.00000000
_cell_angle_beta   90.00000000
_cell_angle_gamma   90.00000000
_symmetry_Int_Tables_number   1
_chemical_formula_structural   CuH20(C3N)8
_chemical_formula_sum   'Cu2 H40 C48 N16'
_cell_volume   1385.12485363
_cell_formula_units_Z   2
loop_
 _symmetry_equiv_pos_site_id
 _symmetry_equiv_pos_as_xyz
  1  'x, y, z'
loop_
 _atom_site_type_symbol
 _atom_site_label
 _atom_site_symmetry_multiplicity
 _atom_site_fract_x
 _atom_site_fract_y
 _atom_site_fract_z
 _atom_site_occupancy
 _atom_site_charge
  Cu  Cu1  1  0.250000  0.250000  0.750000  1.0  0.452
  Cu  Cu2  1  0.750000  0.750000  0.250000  1.0  0.452
  H  H3  1  0.104000  0.273900  0.477900  1.0  0.0538
  H  H4  1  0.036600  0.183400  0.260300  1.0  0.0872
  H  H5  1  0.147000  0.931800  0.462200  1.0  0.1027
  H  H6  1  0.214200  0.025300  0.668100  1.0  0.0633
  H  H7  1  0.049600  0.919400  0.195300  1.0  0.0631
  H  H8  1  0.396000  0.226100  0.477900  1.0  0.0547
  H  H9  1  0.463400  0.316600  0.260300  1.0  0.087
  H  H10  1  0.353000  0.568200  0.462200  1.0  0.1
  H  H11  1  0.285800  0.474700  0.668100  1.0  0.063
  H  H12  1  0.450400  0.580600  0.195300  1.0  0.064
  H  H13  1  0.726100  0.604000  0.977900  1.0  0.0542
  H  H14  1  0.816600  0.536600  0.760300  1.0  0.0865
  H  H15  1  0.068200  0.647000  0.962200  1.0  0.1034
  H  H16  1  0.974700  0.714200  0.168100  1.0  0.0635
  H  H17  1  0.080600  0.549600  0.695300  1.0  0.0652
  H  H18  1  0.773900  0.896000  0.977900  1.0  0.0547
  H  H19  1  0.683400  0.963400  0.760300  1.0  0.0867
  H  H20  1  0.431800  0.853000  0.962200  1.0  0.1035
  H  H21  1  0.525300  0.785800  0.168100  1.0  0.0643
  H  H22  1  0.419400  0.950400  0.695300  1.0  0.0623
  H  H23  1  0.896000  0.726100  0.522100  1.0  0.0544
  H  H24  1  0.963400  0.816600  0.739700  1.0  0.0867
  H  H25  1  0.853000  0.068200  0.537800  1.0  0.1001
  H  H26  1  0.785800  0.974700  0.331900  1.0  0.0636
  H  H27  1  0.950400  0.080600  0.804700  1.0  0.0642
  H  H28  1  0.604000  0.773900  0.522100  1.0  0.0537
  H  H29  1  0.536600  0.683400  0.739700  1.0  0.0869
  H  H30  1  0.647000  0.431800  0.537800  1.0  0.1026
  H  H31  1  0.714200  0.525300  0.331900  1.0  0.0637
  H  H32  1  0.549600  0.419400  0.804700  1.0  0.063
  H  H33  1  0.273900  0.396000  0.022100  1.0  0.0546
  H  H34  1  0.183400  0.463400  0.239700  1.0  0.0865
  H  H35  1  0.931800  0.353000  0.037800  1.0  0.1035
  H  H36  1  0.025300  0.285800  0.831900  1.0  0.0635
  H  H37  1  0.919400  0.450400  0.304700  1.0  0.0625
  H  H38  1  0.226100  0.104000  0.022100  1.0  0.0536
  H  H39  1  0.316600  0.036600  0.239700  1.0  0.0864
  H  H40  1  0.568200  0.147000  0.037800  1.0  0.1034
  H  H41  1  0.474700  0.214200  0.831900  1.0  0.0639
  H  H42  1  0.580600  0.049600  0.304700  1.0  0.0651
  C  C43  1  0.115100  0.203800  0.473000  1.0  0.1548
  C  C44  1  0.074200  0.149500  0.341000  1.0  -0.1536
  C  C45  1  0.088600  0.048400  0.330000  1.0  0.0741
  C  C46  1  0.139700  0.002500  0.460000  1.0  -0.2163
  C  C47  1  0.178800  0.059000  0.584200  1.0  0.1504
  C  C48  1  0.049600  0.990500  0.190000  1.0  0.1344
  C  C49  1  0.384900  0.296200  0.473000  1.0  0.1554
  C  C50  1  0.425800  0.350500  0.341000  1.0  -0.1543
  C  C51  1  0.411400  0.451600  0.330000  1.0  0.0754
  C  C52  1  0.360300  0.497500  0.460000  1.0  -0.2179
  C  C53  1  0.321200  0.441000  0.584200  1.0  0.1516
  C  C54  1  0.450400  0.509500  0.190000  1.0  0.1335
  C  C55  1  0.796200  0.615100  0.973000  1.0  0.1527
  C  C56  1  0.850500  0.574200  0.841000  1.0  -0.1518
  C  C57  1  0.951600  0.588600  0.830000  1.0  0.0743
  C  C58  1  0.997500  0.639700  0.960000  1.0  -0.2164
  C  C59  1  0.941000  0.678800  0.084200  1.0  0.1514
  C  C60  1  0.009500  0.549600  0.690000  1.0  0.1337
  C  C61  1  0.703800  0.884900  0.973000  1.0  0.1538
  C  C62  1  0.649500  0.925800  0.841000  1.0  -0.1516
  C  C63  1  0.548400  0.911400  0.830000  1.0  0.0735
  C  C64  1  0.502500  0.860300  0.960000  1.0  -0.2169
  C  C65  1  0.559000  0.821200  0.084200  1.0  0.1526
  C  C66  1  0.490500  0.950400  0.690000  1.0  0.135
  C  C67  1  0.884900  0.796200  0.527000  1.0  0.1553
  C  C68  1  0.925800  0.850500  0.659000  1.0  -0.1541
  C  C69  1  0.911400  0.951600  0.670000  1.0  0.076
  C  C70  1  0.860300  0.997500  0.540000  1.0  -0.2179
  C  C71  1  0.821200  0.941000  0.415800  1.0  0.1514
  C  C72  1  0.950400  0.009500  0.810000  1.0  0.1331
  C  C73  1  0.615100  0.703800  0.527000  1.0  0.1547
  C  C74  1  0.574200  0.649500  0.659000  1.0  -0.1534
  C  C75  1  0.588600  0.548400  0.670000  1.0  0.076
  C  C76  1  0.639700  0.502500  0.540000  1.0  -0.216
  C  C77  1  0.678800  0.559000  0.415800  1.0  0.1498
  C  C78  1  0.549600  0.490500  0.810000  1.0  0.1331
  C  C79  1  0.203800  0.384900  0.027000  1.0  0.1536
  C  C80  1  0.149500  0.425800  0.159000  1.0  -0.1513
  C  C81  1  0.048400  0.411400  0.170000  1.0  0.0742
  C  C82  1  0.002500  0.360300  0.040000  1.0  -0.217
  C  C83  1  0.059000  0.321200  0.915800  1.0  0.1519
  C  C84  1  0.990500  0.450400  0.310000  1.0  0.1344
  C  C85  1  0.296200  0.115100  0.027000  1.0  0.1522
  C  C86  1  0.350500  0.074200  0.159000  1.0  -0.1515
  C  C87  1  0.451600  0.088600  0.170000  1.0  0.0752
  C  C88  1  0.497500  0.139700  0.040000  1.0  -0.2164
  C  C89  1  0.441000  0.178800  0.915800  1.0  0.1509
  C  C90  1  0.509500  0.049600  0.310000  1.0  0.1325
  N  N91  1  0.169300  0.160000  0.592100  1.0  -0.3601
  N  N92  1  0.015300  0.034500  0.061600  1.0  -0.2693
  N  N93  1  0.330700  0.340000  0.592100  1.0  -0.3598
  N  N94  1  0.484700  0.465500  0.061600  1.0  -0.2686
  N  N95  1  0.840000  0.669300  0.092100  1.0  -0.3596
  N  N96  1  0.965500  0.515300  0.561600  1.0  -0.2656
  N  N97  1  0.660000  0.830700  0.092100  1.0  -0.3582
  N  N98  1  0.534500  0.984700  0.561600  1.0  -0.267
  N  N99  1  0.830700  0.840000  0.407900  1.0  -0.3618
  N  N100  1  0.984700  0.965500  0.938400  1.0  -0.2686
  N  N101  1  0.669300  0.660000  0.407900  1.0  -0.3611
  N  N102  1  0.515300  0.534500  0.938400  1.0  -0.2696
  N  N103  1  0.160000  0.330700  0.907900  1.0  -0.3607
  N  N104  1  0.034500  0.484700  0.438400  1.0  -0.2673
  N  N105  1  0.340000  0.169300  0.907900  1.0  -0.3606
  N  N106  1  0.465500  0.015300  0.438400  1.0  -0.2658
