# generated using pymatgen
data_EuZnH6C15(NO5)2
_symmetry_space_group_name_H-M   'P 1'
_cell_length_a   9.99390000
_cell_length_b   10.65230000
_cell_length_c   10.96580000
_cell_angle_alpha   80.55800000
_cell_angle_beta   72.25700000
_cell_angle_gamma   74.54100000
_symmetry_Int_Tables_number   1
_chemical_formula_structural   EuZnH6C15(NO5)2
_chemical_formula_sum   'Eu2 Zn2 H12 C30 N4 O20'
_cell_volume   1067.27182171
_cell_formula_units_Z   2
loop_
 _symmetry_equiv_pos_site_id
 _symmetry_equiv_pos_as_xyz
  1  'x, y, z'
loop_
 _atom_site_type_symbol
 _atom_site_label
 _atom_site_symmetry_multiplicity
 _atom_site_fract_x
 _atom_site_fract_y
 _atom_site_fract_z
 _atom_site_occupancy
 _atom_site_charge
  Eu  Eu1  1  0.824910  0.305600  0.465660  1.0  2.1302
  Eu  Eu2  1  0.175090  0.694400  0.534340  1.0  2.1304
  Zn  Zn3  1  0.707870  0.132230  0.883500  1.0  0.9155
  Zn  Zn4  1  0.292130  0.867770  0.116500  1.0  0.9144
  H  H5  1  0.189000  0.225000  0.006000  1.0  0.106
  H  H6  1  0.146000  0.325000  0.806000  1.0  0.1031
  H  H7  1  0.942000  0.294000  0.766000  1.0  0.0804
  H  H8  1  0.196000  0.561000  0.963000  1.0  0.0877
  H  H9  1  0.261000  0.437000  0.147000  1.0  0.1258
  H  H10  1  0.468000  0.281000  0.116000  1.0  0.0849
  H  H11  1  0.811000  0.775000  0.994000  1.0  0.1062
  H  H12  1  0.854000  0.675000  0.194000  1.0  0.1044
  H  H13  1  0.058000  0.706000  0.234000  1.0  0.0804
  H  H14  1  0.804000  0.439000  0.037000  1.0  0.0883
  H  H15  1  0.739000  0.563000  0.853000  1.0  0.1248
  H  H16  1  0.532000  0.719000  0.884000  1.0  0.0852
  C  C17  1  0.776900  0.075300  0.125700  1.0  0.6413
  C  C18  1  0.888800  0.148300  0.041200  1.0  0.0759
  C  C19  1  0.006800  0.161500  0.076200  1.0  -0.1199
  C  C20  1  0.105900  0.224500  0.987100  1.0  -0.1018
  C  C21  1  0.084100  0.275200  0.868600  1.0  -0.1089
  C  C22  1  0.963300  0.260400  0.841300  1.0  0.1437
  C  C23  1  0.029600  0.115700  0.207700  1.0  0.7461
  C  C24  1  0.594700  0.330900  0.699900  1.0  0.6797
  C  C25  1  0.485600  0.363800  0.825800  1.0  0.1142
  C  C26  1  0.360600  0.462700  0.834900  1.0  -0.0984
  C  C27  1  0.275100  0.493000  0.957400  1.0  -0.073
  C  C28  1  0.314900  0.425700  0.064700  1.0  -0.1025
  C  C29  1  0.439000  0.326800  0.046800  1.0  0.1548
  C  C30  1  0.311900  0.538600  0.719800  1.0  0.6902
  C  C31  1  0.059600  0.478700  0.438100  1.0  0.5588
  C  C32  1  0.223100  0.924700  0.874300  1.0  0.6431
  C  C33  1  0.111200  0.851700  0.958800  1.0  0.076
  C  C34  1  0.993200  0.838500  0.923800  1.0  -0.1203
  C  C35  1  0.894100  0.775500  0.012900  1.0  -0.1003
  C  C36  1  0.915900  0.724800  0.131400  1.0  -0.1116
  C  C37  1  0.036700  0.739600  0.158700  1.0  0.1437
  C  C38  1  0.970400  0.884300  0.792300  1.0  0.7405
  C  C39  1  0.405300  0.669100  0.300100  1.0  0.6802
  C  C40  1  0.514400  0.636200  0.174200  1.0  0.1149
  C  C41  1  0.639400  0.537300  0.165100  1.0  -0.0978
  C  C42  1  0.724900  0.507000  0.042600  1.0  -0.0737
  C  C43  1  0.685100  0.574300  0.935300  1.0  -0.1021
  C  C44  1  0.561000  0.673200  0.953200  1.0  0.1534
  C  C45  1  0.688100  0.461400  0.280200  1.0  0.6926
  C  C46  1  0.940400  0.521300  0.561900  1.0  0.5591
  N  N47  1  0.868700  0.197800  0.925000  1.0  -0.3109
  N  N48  1  0.522800  0.295100  0.929900  1.0  -0.3356
  N  N49  1  0.131300  0.802200  0.075000  1.0  -0.3103
  N  N50  1  0.477200  0.704900  0.070100  1.0  -0.3389
  O  O51  1  0.685600  0.060300  0.073930  1.0  -0.5904
  O  O52  1  0.782700  0.033800  0.236640  1.0  -0.5174
  O  O53  1  0.972700  0.197140  0.288700  1.0  -0.7441
  O  O54  1  0.109400  0.006320  0.226300  1.0  -0.648
  O  O55  1  0.707900  0.240810  0.703120  1.0  -0.6495
  O  O56  1  0.576620  0.394730  0.598580  1.0  -0.6056
  O  O57  1  0.330900  0.652330  0.687270  1.0  -0.6186
  O  O58  1  0.244400  0.488900  0.667860  1.0  -0.5904
  O  O59  1  0.043500  0.392740  0.382870  1.0  -0.6138
  O  O60  1  0.162100  0.535100  0.403850  1.0  -0.6052
  O  O61  1  0.314400  0.939700  0.926070  1.0  -0.5925
  O  O62  1  0.217300  0.966200  0.763360  1.0  -0.5166
  O  O63  1  0.027300  0.802860  0.711300  1.0  -0.7445
  O  O64  1  0.890600  0.993680  0.773700  1.0  -0.6479
  O  O65  1  0.292100  0.759190  0.296880  1.0  -0.6495
  O  O66  1  0.423380  0.605270  0.401420  1.0  -0.6066
  O  O67  1  0.669100  0.347670  0.312730  1.0  -0.6177
  O  O68  1  0.755600  0.511100  0.332140  1.0  -0.5914
  O  O69  1  0.956500  0.607260  0.617130  1.0  -0.6164
  O  O70  1  0.837900  0.464900  0.596150  1.0  -0.6038
