# generated using pymatgen
data_MnH10C15NO6
_symmetry_space_group_name_H-M   'P 1'
_cell_length_a   9.47000000
_cell_length_b   9.78450000
_cell_length_c   12.74250000
_cell_angle_alpha   87.24650000
_cell_angle_beta   84.30290000
_cell_angle_gamma   61.05770000
_symmetry_Int_Tables_number   1
_chemical_formula_structural   MnH10C15NO6
_chemical_formula_sum   'Mn2 H20 C30 N2 O12'
_cell_volume   1028.14457926
_cell_formula_units_Z   2
loop_
 _symmetry_equiv_pos_site_id
 _symmetry_equiv_pos_as_xyz
  1  'x, y, z'
loop_
 _atom_site_type_symbol
 _atom_site_label
 _atom_site_symmetry_multiplicity
 _atom_site_fract_x
 _atom_site_fract_y
 _atom_site_fract_z
 _atom_site_occupancy
 _atom_site_charge
  Mn  Mn1  1  0.654260  0.691480  0.000000  1.0  1.1447
  Mn  Mn2  1  0.345740  0.308520  0.000000  1.0  1.1439
  H  H3  1  0.435600  0.233800  0.425800  1.0  0.1268
  H  H4  1  0.555400  0.228600  0.259000  1.0  0.1157
  H  H5  1  0.063300  0.764600  0.144300  1.0  0.1091
  H  H6  1  0.311700  0.763600  0.138700  1.0  0.0975
  H  H7  1  0.684000  0.100000  0.108000  1.0  0.1145
  H  H8  1  0.330600  0.233800  0.574200  1.0  0.1267
  H  H9  1  0.216000  0.228600  0.741000  1.0  0.1154
  H  H10  1  0.172100  0.764600  0.855700  1.0  0.1095
  H  H11  1  0.924700  0.763600  0.861300  1.0  0.0973
  H  H12  1  0.216000  0.100000  0.892000  1.0  0.1112
  H  H13  1  0.564400  0.766200  0.574200  1.0  0.1267
  H  H14  1  0.444600  0.771400  0.741000  1.0  0.1147
  H  H15  1  0.936700  0.235400  0.855700  1.0  0.1103
  H  H16  1  0.688300  0.236400  0.861300  1.0  0.0975
  H  H17  1  0.316000  0.900000  0.892000  1.0  0.1146
  H  H18  1  0.669400  0.766200  0.425800  1.0  0.1267
  H  H19  1  0.784000  0.771400  0.259000  1.0  0.1152
  H  H20  1  0.827900  0.235400  0.144300  1.0  0.1101
  H  H21  1  0.075300  0.236400  0.138700  1.0  0.0972
  H  H22  1  0.784000  0.900000  0.108000  1.0  0.112
  C  C23  1  0.508900  0.136200  0.393600  1.0  -0.1642
  C  C24  1  0.581300  0.133200  0.295100  1.0  0.061
  C  C25  1  0.065900  0.860600  0.142500  1.0  -0.1376
  C  C26  1  0.214000  0.859800  0.138100  1.0  -0.0203
  C  C27  1  0.468200  0.535400  0.946900  1.0  0.5462
  C  C28  1  0.354900  0.136200  0.606400  1.0  -0.1619
  C  C29  1  0.285500  0.133200  0.704900  1.0  0.0685
  C  C30  1  0.073500  0.860600  0.857500  1.0  -0.1407
  C  C31  1  0.926200  0.859800  0.861900  1.0  -0.0254
  C  C32  1  0.996400  0.535400  0.053100  1.0  0.5438
  C  C33  1  0.491100  0.863800  0.606400  1.0  -0.1636
  C  C34  1  0.418700  0.866800  0.704900  1.0  0.06
  C  C35  1  0.934100  0.139400  0.857500  1.0  -0.1377
  C  C36  1  0.786000  0.140200  0.861900  1.0  -0.0276
  C  C37  1  0.531800  0.464600  0.053100  1.0  0.5436
  C  C38  1  0.645100  0.863800  0.393600  1.0  -0.1642
  C  C39  1  0.714500  0.866800  0.295100  1.0  0.0651
  C  C40  1  0.926500  0.139400  0.142500  1.0  -0.1328
  C  C41  1  0.073800  0.140200  0.138100  1.0  -0.0226
  C  C42  1  0.003600  0.464600  0.946900  1.0  0.5461
  C  C43  1  0.540200  0.000000  0.447200  1.0  0.0743
  C  C44  1  0.764500  0.000000  0.140400  1.0  -0.1088
  C  C45  1  0.923300  0.000000  0.144200  1.0  0.06
  C  C46  1  0.218700  0.000000  0.132800  1.0  -0.1682
  C  C47  1  0.377500  0.000000  0.117500  1.0  0.6955
  C  C48  1  0.459800  0.000000  0.552800  1.0  0.0735
  C  C49  1  0.235500  0.000000  0.859600  1.0  -0.1085
  C  C50  1  0.076700  0.000000  0.855800  1.0  0.062
  C  C51  1  0.781300  0.000000  0.867200  1.0  -0.1615
  C  C52  1  0.622500  0.000000  0.882500  1.0  0.697
  N  N53  1  0.686800  0.000000  0.249100  1.0  0.1107
  N  N54  1  0.313200  0.000000  0.750900  1.0  0.1091
  O  O55  1  0.505430  0.870740  0.112300  1.0  -0.6271
  O  O56  1  0.501800  0.637400  0.908500  1.0  -0.5616
  O  O57  1  0.387850  0.485300  0.905400  1.0  -0.5628
  O  O58  1  0.623830  0.870740  0.887700  1.0  -0.6289
  O  O59  1  0.860800  0.637400  0.091500  1.0  -0.5612
  O  O60  1  0.126850  0.485300  0.094600  1.0  -0.5625
  O  O61  1  0.494570  0.129260  0.887700  1.0  -0.6264
  O  O62  1  0.498200  0.362600  0.091500  1.0  -0.5613
  O  O63  1  0.612150  0.514700  0.094600  1.0  -0.5624
  O  O64  1  0.376170  0.129260  0.112300  1.0  -0.6306
  O  O65  1  0.139200  0.362600  0.908500  1.0  -0.561
  O  O66  1  0.873150  0.514700  0.905400  1.0  -0.5626
