# generated using pymatgen
data_TbZnH6C15(NO5)2
_symmetry_space_group_name_H-M   'P 1'
_cell_length_a   9.94300000
_cell_length_b   10.56680000
_cell_length_c   10.91690000
_cell_angle_alpha   80.59600000
_cell_angle_beta   72.14900000
_cell_angle_gamma   74.57400000
_symmetry_Int_Tables_number   1
_chemical_formula_structural   TbZnH6C15(NO5)2
_chemical_formula_sum   'Tb2 Zn2 H12 C30 N4 O20'
_cell_volume   1048.24434366
_cell_formula_units_Z   2
loop_
 _symmetry_equiv_pos_site_id
 _symmetry_equiv_pos_as_xyz
  1  'x, y, z'
loop_
 _atom_site_type_symbol
 _atom_site_label
 _atom_site_symmetry_multiplicity
 _atom_site_fract_x
 _atom_site_fract_y
 _atom_site_fract_z
 _atom_site_occupancy
 _atom_site_charge
  Tb  Tb1  1  0.174370  0.193750  0.034090  1.0  2.2406
  Tb  Tb2  1  0.825630  0.806250  0.965910  1.0  2.24
  Zn  Zn3  1  0.291720  0.367860  0.617190  1.0  0.8972
  Zn  Zn4  1  0.708280  0.632140  0.382810  1.0  0.8991
  H  H5  1  0.534000  0.220000  0.385000  1.0  0.0844
  H  H6  1  0.741000  0.060000  0.353000  1.0  0.1166
  H  H7  1  0.799000  0.946000  0.540000  1.0  0.0907
  H  H8  1  0.807000  0.273000  0.494000  1.0  0.1065
  H  H9  1  0.847000  0.185000  0.692000  1.0  0.105
  H  H10  1  0.052000  0.206000  0.736000  1.0  0.0899
  H  H11  1  0.466000  0.780000  0.615000  1.0  0.0836
  H  H12  1  0.259000  0.940000  0.647000  1.0  0.1175
  H  H13  1  0.201000  0.054000  0.460000  1.0  0.0919
  H  H14  1  0.193000  0.727000  0.506000  1.0  0.1066
  H  H15  1  0.153000  0.815000  0.308000  1.0  0.1046
  H  H16  1  0.948000  0.794000  0.264000  1.0  0.0898
  C  C17  1  0.688200  0.961600  0.782500  1.0  0.678
  C  C18  1  0.640200  0.037000  0.667300  1.0  -0.1051
  C  C19  1  0.514500  0.135700  0.675500  1.0  0.1089
  C  C20  1  0.562500  0.172400  0.454100  1.0  0.1409
  C  C21  1  0.687000  0.072600  0.436700  1.0  -0.1354
  C  C22  1  0.726500  0.006200  0.544500  1.0  -0.1028
  C  C23  1  0.404000  0.169200  0.801600  1.0  0.6605
  C  C24  1  0.225100  0.423800  0.373700  1.0  0.6406
  C  C25  1  0.111500  0.351300  0.458300  1.0  0.0833
  C  C26  1  0.993600  0.338500  0.422900  1.0  -0.1112
  C  C27  1  0.972000  0.383300  0.291000  1.0  0.7405
  C  C28  1  0.892700  0.276600  0.512900  1.0  -0.0477
  C  C29  1  0.914300  0.226100  0.631700  1.0  -0.1042
  C  C30  1  0.035100  0.240600  0.659300  1.0  0.112
  C  C31  1  0.940300  0.020700  0.062300  1.0  0.5539
  C  C32  1  0.311800  0.038400  0.217500  1.0  0.6759
  C  C33  1  0.359800  0.963000  0.332700  1.0  -0.1057
  C  C34  1  0.485500  0.864300  0.324500  1.0  0.1082
  C  C35  1  0.437500  0.827600  0.545900  1.0  0.1412
  C  C36  1  0.313000  0.927400  0.563300  1.0  -0.1377
  C  C37  1  0.273500  0.993800  0.455500  1.0  -0.1027
  C  C38  1  0.596000  0.830800  0.198400  1.0  0.6601
  C  C39  1  0.774900  0.576200  0.626300  1.0  0.6375
  C  C40  1  0.888500  0.648700  0.541700  1.0  0.084
  C  C41  1  0.006400  0.661500  0.577100  1.0  -0.1112
  C  C42  1  0.028000  0.616700  0.709000  1.0  0.7462
  C  C43  1  0.107300  0.723400  0.487100  1.0  -0.0462
  C  C44  1  0.085700  0.773900  0.368300  1.0  -0.1031
  C  C45  1  0.964900  0.759400  0.340700  1.0  0.1143
  C  C46  1  0.059700  0.979300  0.937700  1.0  0.5552
  N  N47  1  0.477900  0.204200  0.571200  1.0  -0.3442
  N  N48  1  0.130300  0.302700  0.575200  1.0  -0.3172
  N  N49  1  0.522100  0.795800  0.428800  1.0  -0.341
  N  N50  1  0.869700  0.697300  0.424800  1.0  -0.316
  O  O51  1  0.421340  0.105500  0.903220  1.0  -0.6042
  O  O52  1  0.290620  0.259000  0.797950  1.0  -0.6436
  O  O53  1  0.670400  0.847000  0.814520  1.0  -0.6198
  O  O54  1  0.756100  0.010880  0.834570  1.0  -0.5964
  O  O55  1  0.316100  0.439400  0.425990  1.0  -0.5844
  O  O56  1  0.220200  0.464800  0.262140  1.0  -0.5198
  O  O57  1  0.029200  0.300770  0.210290  1.0  -0.7529
  O  O58  1  0.892600  0.493630  0.271680  1.0  -0.6419
  O  O59  1  0.957100  0.106810  0.118380  1.0  -0.6132
  O  O60  1  0.838000  0.963810  0.096470  1.0  -0.611
  O  O61  1  0.578660  0.894500  0.096780  1.0  -0.6021
  O  O62  1  0.709380  0.741000  0.202050  1.0  -0.6444
  O  O63  1  0.329600  0.153000  0.185480  1.0  -0.6211
  O  O64  1  0.243900  0.989120  0.165430  1.0  -0.5963
  O  O65  1  0.683900  0.560600  0.574010  1.0  -0.5817
  O  O66  1  0.779800  0.535200  0.737860  1.0  -0.52
  O  O67  1  0.970800  0.699230  0.789710  1.0  -0.7536
  O  O68  1  0.107400  0.506370  0.728320  1.0  -0.6426
  O  O69  1  0.042900  0.893190  0.881620  1.0  -0.6136
  O  O70  1  0.162000  0.036190  0.903530  1.0  -0.6109
