# generated using pymatgen
data_MnH3(CO2)3
_symmetry_space_group_name_H-M   'P 1'
_cell_length_a   8.52110000
_cell_length_b   11.97790000
_cell_length_c   9.05930000
_cell_angle_alpha   90.00000000
_cell_angle_beta   90.00000000
_cell_angle_gamma   90.00000000
_symmetry_Int_Tables_number   1
_chemical_formula_structural   MnH3(CO2)3
_chemical_formula_sum   'Mn4 H12 C12 O24'
_cell_volume   924.63640081
_cell_formula_units_Z   4
loop_
 _symmetry_equiv_pos_site_id
 _symmetry_equiv_pos_as_xyz
  1  'x, y, z'
loop_
 _atom_site_type_symbol
 _atom_site_label
 _atom_site_symmetry_multiplicity
 _atom_site_fract_x
 _atom_site_fract_y
 _atom_site_fract_z
 _atom_site_occupancy
 _atom_site_charge
  Mn  Mn1  1  0.251920  0.250000  0.250000  1.0  1.0331
  Mn  Mn2  1  0.248080  0.750000  0.250000  1.0  1.0338
  Mn  Mn3  1  0.748080  0.750000  0.750000  1.0  1.0338
  Mn  Mn4  1  0.751920  0.250000  0.750000  1.0  1.0331
  H  H5  1  0.583300  0.267700  0.435900  1.0  0.0448
  H  H6  1  0.916700  0.732300  0.435900  1.0  0.0434
  H  H7  1  0.916700  0.767700  0.064100  1.0  0.0443
  H  H8  1  0.583300  0.232300  0.064100  1.0  0.0433
  H  H9  1  0.416700  0.732300  0.564100  1.0  0.0436
  H  H10  1  0.083300  0.267700  0.564100  1.0  0.0436
  H  H11  1  0.083300  0.232300  0.935900  1.0  0.0436
  H  H12  1  0.416700  0.767700  0.935900  1.0  0.045
  H  H13  1  0.250000  0.500000  0.208200  1.0  0.0486
  H  H14  1  0.250000  0.000000  0.291800  1.0  0.0464
  H  H15  1  0.750000  0.500000  0.791800  1.0  0.0464
  H  H16  1  0.750000  0.000000  0.708200  1.0  0.0486
  C  C17  1  0.519800  0.216540  0.484930  1.0  0.7464
  C  C18  1  0.980200  0.783460  0.484930  1.0  0.745
  C  C19  1  0.980200  0.716540  0.015070  1.0  0.7462
  C  C20  1  0.519800  0.283460  0.015070  1.0  0.7455
  C  C21  1  0.480200  0.783460  0.515070  1.0  0.7449
  C  C22  1  0.019800  0.216540  0.515070  1.0  0.7467
  C  C23  1  0.019800  0.283460  0.984930  1.0  0.7455
  C  C24  1  0.480200  0.716540  0.984930  1.0  0.7461
  C  C25  1  0.250000  0.500000  0.310800  1.0  0.7267
  C  C26  1  0.250000  0.000000  0.189200  1.0  0.7275
  C  C27  1  0.750000  0.500000  0.689200  1.0  0.7275
  C  C28  1  0.750000  0.000000  0.810800  1.0  0.7267
  O  O29  1  0.256850  0.407460  0.371530  1.0  -0.5648
  O  O30  1  0.404340  0.179490  0.416320  1.0  -0.574
  O  O31  1  0.557420  0.191350  0.612270  1.0  -0.5559
  O  O32  1  0.243150  0.592540  0.371530  1.0  -0.5634
  O  O33  1  0.095660  0.820510  0.416320  1.0  -0.5747
  O  O34  1  0.942580  0.808650  0.612270  1.0  -0.5571
  O  O35  1  0.243150  0.907460  0.128470  1.0  -0.5636
  O  O36  1  0.095660  0.679490  0.083680  1.0  -0.5738
  O  O37  1  0.942580  0.691350  0.887730  1.0  -0.5563
  O  O38  1  0.256850  0.092540  0.128470  1.0  -0.5623
  O  O39  1  0.404340  0.320510  0.083680  1.0  -0.5748
  O  O40  1  0.557420  0.308650  0.887730  1.0  -0.5557
  O  O41  1  0.743150  0.592540  0.628470  1.0  -0.5622
  O  O42  1  0.595660  0.820510  0.583680  1.0  -0.5744
  O  O43  1  0.442580  0.808650  0.387730  1.0  -0.5558
  O  O44  1  0.756850  0.407460  0.628470  1.0  -0.5639
  O  O45  1  0.904340  0.179490  0.583680  1.0  -0.574
  O  O46  1  0.057420  0.191350  0.387730  1.0  -0.5562
  O  O47  1  0.756850  0.092540  0.871530  1.0  -0.5635
  O  O48  1  0.904340  0.320510  0.916320  1.0  -0.5736
  O  O49  1  0.057420  0.308650  0.112270  1.0  -0.5567
  O  O50  1  0.743150  0.907460  0.871530  1.0  -0.5645
  O  O51  1  0.595660  0.679490  0.916320  1.0  -0.5728
  O  O52  1  0.442580  0.691350  0.112270  1.0  -0.5562
