# generated using pymatgen
data_FeH3(CO2)3
_symmetry_space_group_name_H-M   'P 1'
_cell_length_a   8.41560000
_cell_length_b   11.85040000
_cell_length_c   8.94740000
_cell_angle_alpha   90.00000000
_cell_angle_beta   90.00000000
_cell_angle_gamma   90.00000000
_symmetry_Int_Tables_number   1
_chemical_formula_structural   FeH3(CO2)3
_chemical_formula_sum   'Fe4 H12 C12 O24'
_cell_volume   892.30833146
_cell_formula_units_Z   4
loop_
 _symmetry_equiv_pos_site_id
 _symmetry_equiv_pos_as_xyz
  1  'x, y, z'
loop_
 _atom_site_type_symbol
 _atom_site_label
 _atom_site_symmetry_multiplicity
 _atom_site_fract_x
 _atom_site_fract_y
 _atom_site_fract_z
 _atom_site_occupancy
 _atom_site_charge
  Fe  Fe1  1  0.252430  0.250000  0.250000  1.0  0.8227
  Fe  Fe2  1  0.247570  0.750000  0.250000  1.0  0.8227
  Fe  Fe3  1  0.747570  0.750000  0.750000  1.0  0.8227
  Fe  Fe4  1  0.752430  0.250000  0.750000  1.0  0.8227
  H  H5  1  0.583100  0.275700  0.435500  1.0  0.063
  H  H6  1  0.916900  0.724300  0.435500  1.0  0.0622
  H  H7  1  0.916900  0.775700  0.064500  1.0  0.0624
  H  H8  1  0.583100  0.224300  0.064500  1.0  0.0618
  H  H9  1  0.416900  0.724300  0.564500  1.0  0.0617
  H  H10  1  0.083100  0.275700  0.564500  1.0  0.0617
  H  H11  1  0.083100  0.224300  0.935500  1.0  0.0619
  H  H12  1  0.416900  0.775700  0.935500  1.0  0.0628
  H  H13  1  0.250000  0.500000  0.202600  1.0  0.0639
  H  H14  1  0.250000  0.000000  0.297400  1.0  0.0617
  H  H15  1  0.750000  0.500000  0.797400  1.0  0.0617
  H  H16  1  0.750000  0.000000  0.702600  1.0  0.0639
  C  C17  1  0.521700  0.221210  0.483100  1.0  0.766
  C  C18  1  0.978300  0.778790  0.483100  1.0  0.7649
  C  C19  1  0.978300  0.721210  0.016900  1.0  0.7663
  C  C20  1  0.521700  0.278790  0.016900  1.0  0.7644
  C  C21  1  0.478300  0.778790  0.516900  1.0  0.7646
  C  C22  1  0.021700  0.221210  0.516900  1.0  0.7659
  C  C23  1  0.021700  0.278790  0.983100  1.0  0.7646
  C  C24  1  0.478300  0.721210  0.983100  1.0  0.7664
  C  C25  1  0.250000  0.500000  0.306500  1.0  0.7484
  C  C26  1  0.250000  0.000000  0.193500  1.0  0.7497
  C  C27  1  0.750000  0.500000  0.693500  1.0  0.7497
  C  C28  1  0.750000  0.000000  0.806500  1.0  0.7484
  O  O29  1  0.256310  0.406230  0.368670  1.0  -0.5425
  O  O30  1  0.406640  0.182760  0.413110  1.0  -0.5584
  O  O31  1  0.562000  0.192990  0.611620  1.0  -0.5437
  O  O32  1  0.243690  0.593770  0.368670  1.0  -0.5426
  O  O33  1  0.093360  0.817240  0.413110  1.0  -0.5591
  O  O34  1  0.938000  0.807010  0.611620  1.0  -0.5454
  O  O35  1  0.243690  0.906230  0.131330  1.0  -0.5421
  O  O36  1  0.093360  0.682760  0.086890  1.0  -0.559
  O  O37  1  0.938000  0.692990  0.888380  1.0  -0.5442
  O  O38  1  0.256310  0.093770  0.131330  1.0  -0.5413
  O  O39  1  0.406640  0.317240  0.086890  1.0  -0.5586
  O  O40  1  0.562000  0.307010  0.888380  1.0  -0.5439
  O  O41  1  0.743690  0.593770  0.631330  1.0  -0.5415
  O  O42  1  0.593360  0.817240  0.586890  1.0  -0.559
  O  O43  1  0.438000  0.807010  0.388380  1.0  -0.5445
  O  O44  1  0.756310  0.406230  0.631330  1.0  -0.5419
  O  O45  1  0.906640  0.182760  0.586890  1.0  -0.5582
  O  O46  1  0.062000  0.192990  0.388380  1.0  -0.5436
  O  O47  1  0.756310  0.093770  0.868670  1.0  -0.5424
  O  O48  1  0.906640  0.317240  0.913110  1.0  -0.5573
  O  O49  1  0.062000  0.307010  0.111620  1.0  -0.5443
  O  O50  1  0.743690  0.906230  0.868670  1.0  -0.5427
  O  O51  1  0.593360  0.682760  0.913110  1.0  -0.5579
  O  O52  1  0.438000  0.692990  0.111620  1.0  -0.5446
