# generated using pymatgen
data_ZnH3(CO2)3
_symmetry_space_group_name_H-M   'P 1'
_cell_length_a   8.34930000
_cell_length_b   11.72760000
_cell_length_c   8.90890000
_cell_angle_alpha   90.00000000
_cell_angle_beta   90.00000000
_cell_angle_gamma   90.00000000
_symmetry_Int_Tables_number   1
_chemical_formula_structural   ZnH3(CO2)3
_chemical_formula_sum   'Zn4 H12 C12 O24'
_cell_volume   872.33499458
_cell_formula_units_Z   4
loop_
 _symmetry_equiv_pos_site_id
 _symmetry_equiv_pos_as_xyz
  1  'x, y, z'
loop_
 _atom_site_type_symbol
 _atom_site_label
 _atom_site_symmetry_multiplicity
 _atom_site_fract_x
 _atom_site_fract_y
 _atom_site_fract_z
 _atom_site_occupancy
 _atom_site_charge
  Zn  Zn1  1  0.255650  0.250000  0.250000  1.0  1.0132
  Zn  Zn2  1  0.244350  0.750000  0.250000  1.0  1.0124
  Zn  Zn3  1  0.744350  0.750000  0.750000  1.0  1.0124
  Zn  Zn4  1  0.755650  0.250000  0.750000  1.0  1.0132
  H  H5  1  0.583300  0.277800  0.436700  1.0  0.0559
  H  H6  1  0.916700  0.722200  0.436700  1.0  0.0551
  H  H7  1  0.916700  0.777800  0.063300  1.0  0.0545
  H  H8  1  0.583300  0.222200  0.063300  1.0  0.0543
  H  H9  1  0.416700  0.722200  0.563300  1.0  0.0546
  H  H10  1  0.083300  0.277800  0.563300  1.0  0.0541
  H  H11  1  0.083300  0.222200  0.936700  1.0  0.0548
  H  H12  1  0.416700  0.777800  0.936700  1.0  0.0559
  H  H13  1  0.250000  0.500000  0.197500  1.0  0.0484
  H  H14  1  0.250000  0.000000  0.302500  1.0  0.0471
  H  H15  1  0.750000  0.500000  0.802500  1.0  0.0471
  H  H16  1  0.750000  0.000000  0.697500  1.0  0.0484
  C  C17  1  0.522600  0.221780  0.483900  1.0  0.731
  C  C18  1  0.977400  0.778220  0.483900  1.0  0.7311
  C  C19  1  0.977400  0.721780  0.016100  1.0  0.7316
  C  C20  1  0.522600  0.278220  0.016100  1.0  0.7305
  C  C21  1  0.477400  0.778220  0.516100  1.0  0.7309
  C  C22  1  0.022600  0.221780  0.516100  1.0  0.7309
  C  C23  1  0.022600  0.278220  0.983900  1.0  0.7306
  C  C24  1  0.477400  0.721780  0.983900  1.0  0.7317
  C  C25  1  0.250000  0.500000  0.301900  1.0  0.7474
  C  C26  1  0.250000  0.000000  0.198100  1.0  0.749
  C  C27  1  0.750000  0.500000  0.698100  1.0  0.749
  C  C28  1  0.750000  0.000000  0.801900  1.0  0.7474
  O  O29  1  0.257610  0.405840  0.364510  1.0  -0.5529
  O  O30  1  0.406720  0.182090  0.413590  1.0  -0.5773
  O  O31  1  0.563790  0.192340  0.612540  1.0  -0.5604
  O  O32  1  0.242390  0.594160  0.364510  1.0  -0.5536
  O  O33  1  0.093280  0.817910  0.413590  1.0  -0.5772
  O  O34  1  0.936210  0.807660  0.612540  1.0  -0.5614
  O  O35  1  0.242390  0.905840  0.135490  1.0  -0.5517
  O  O36  1  0.093280  0.682090  0.086410  1.0  -0.5772
  O  O37  1  0.936210  0.692340  0.887460  1.0  -0.5612
  O  O38  1  0.257610  0.094160  0.135490  1.0  -0.5517
  O  O39  1  0.406720  0.317910  0.086410  1.0  -0.5768
  O  O40  1  0.563790  0.307660  0.887460  1.0  -0.5611
  O  O41  1  0.742390  0.594160  0.635490  1.0  -0.5515
  O  O42  1  0.593280  0.817910  0.586410  1.0  -0.5768
  O  O43  1  0.436210  0.807660  0.387460  1.0  -0.5612
  O  O44  1  0.757610  0.405840  0.635490  1.0  -0.5519
  O  O45  1  0.906720  0.182090  0.586410  1.0  -0.577
  O  O46  1  0.063790  0.192340  0.387460  1.0  -0.5609
  O  O47  1  0.757610  0.094160  0.864510  1.0  -0.5537
  O  O48  1  0.906720  0.317910  0.913590  1.0  -0.576
  O  O49  1  0.063790  0.307660  0.112540  1.0  -0.5608
  O  O50  1  0.742390  0.905840  0.864510  1.0  -0.5528
  O  O51  1  0.593280  0.682090  0.913590  1.0  -0.5764
  O  O52  1  0.436210  0.692340  0.112540  1.0  -0.5609
