# generated using pymatgen
data_CoH3(CO2)3
_symmetry_space_group_name_H-M   'P 1'
_cell_length_a   8.33430000
_cell_length_b   11.75300000
_cell_length_c   8.91110000
_cell_angle_alpha   90.00000000
_cell_angle_beta   90.00000000
_cell_angle_gamma   90.00000000
_symmetry_Int_Tables_number   1
_chemical_formula_structural   CoH3(CO2)3
_chemical_formula_sum   'Co4 H12 C12 O24'
_cell_volume   872.86922692
_cell_formula_units_Z   4
loop_
 _symmetry_equiv_pos_site_id
 _symmetry_equiv_pos_as_xyz
  1  'x, y, z'
loop_
 _atom_site_type_symbol
 _atom_site_label
 _atom_site_symmetry_multiplicity
 _atom_site_fract_x
 _atom_site_fract_y
 _atom_site_fract_z
 _atom_site_occupancy
 _atom_site_charge
  Co  Co1  1  0.253710  0.250000  0.250000  1.0  0.9617
  Co  Co2  1  0.246290  0.750000  0.250000  1.0  0.9601
  Co  Co3  1  0.746290  0.750000  0.750000  1.0  0.9601
  Co  Co4  1  0.753710  0.250000  0.750000  1.0  0.9617
  H  H5  1  0.584100  0.278300  0.436600  1.0  0.0646
  H  H6  1  0.915900  0.721700  0.436600  1.0  0.0632
  H  H7  1  0.915900  0.778300  0.063400  1.0  0.0629
  H  H8  1  0.584100  0.221700  0.063400  1.0  0.063
  H  H9  1  0.415900  0.721700  0.563400  1.0  0.0629
  H  H10  1  0.084100  0.278300  0.563400  1.0  0.063
  H  H11  1  0.084100  0.221700  0.936600  1.0  0.0634
  H  H12  1  0.415900  0.778300  0.936600  1.0  0.0642
  H  H13  1  0.250000  0.500000  0.198600  1.0  0.0521
  H  H14  1  0.250000  0.000000  0.301400  1.0  0.0509
  H  H15  1  0.750000  0.500000  0.801400  1.0  0.0509
  H  H16  1  0.750000  0.000000  0.698600  1.0  0.0521
  C  C17  1  0.523400  0.222250  0.483500  1.0  0.7364
  C  C18  1  0.976600  0.777750  0.483500  1.0  0.7362
  C  C19  1  0.976600  0.722250  0.016500  1.0  0.7367
  C  C20  1  0.523400  0.277750  0.016500  1.0  0.7355
  C  C21  1  0.476600  0.777750  0.516500  1.0  0.7359
  C  C22  1  0.023400  0.222250  0.516500  1.0  0.7362
  C  C23  1  0.023400  0.277750  0.983500  1.0  0.7358
  C  C24  1  0.476600  0.722250  0.983500  1.0  0.7369
  C  C25  1  0.250000  0.500000  0.303000  1.0  0.7433
  C  C26  1  0.250000  0.000000  0.197000  1.0  0.7442
  C  C27  1  0.750000  0.500000  0.697000  1.0  0.7442
  C  C28  1  0.750000  0.000000  0.803000  1.0  0.7433
  O  O29  1  0.256710  0.405660  0.365550  1.0  -0.5519
  O  O30  1  0.406880  0.182730  0.413320  1.0  -0.5714
  O  O31  1  0.564600  0.192270  0.611900  1.0  -0.5544
  O  O32  1  0.243290  0.594340  0.365550  1.0  -0.5521
  O  O33  1  0.093120  0.817270  0.413320  1.0  -0.5713
  O  O34  1  0.935400  0.807730  0.611900  1.0  -0.5556
  O  O35  1  0.243290  0.905660  0.134450  1.0  -0.5515
  O  O36  1  0.093120  0.682730  0.086680  1.0  -0.5716
  O  O37  1  0.935400  0.692270  0.888100  1.0  -0.5556
  O  O38  1  0.256710  0.094340  0.134450  1.0  -0.5514
  O  O39  1  0.406880  0.317270  0.086680  1.0  -0.5702
  O  O40  1  0.564600  0.307730  0.888100  1.0  -0.5552
  O  O41  1  0.743290  0.594340  0.634450  1.0  -0.5513
  O  O42  1  0.593120  0.817270  0.586680  1.0  -0.5705
  O  O43  1  0.435400  0.807730  0.388100  1.0  -0.5557
  O  O44  1  0.756710  0.405660  0.634450  1.0  -0.5516
  O  O45  1  0.906880  0.182730  0.586680  1.0  -0.5708
  O  O46  1  0.064600  0.192270  0.388100  1.0  -0.5551
  O  O47  1  0.756710  0.094340  0.865550  1.0  -0.5522
  O  O48  1  0.906880  0.317270  0.913320  1.0  -0.5695
  O  O49  1  0.064600  0.307730  0.111900  1.0  -0.5548
  O  O50  1  0.743290  0.905660  0.865550  1.0  -0.5518
  O  O51  1  0.593120  0.682730  0.913320  1.0  -0.5706
  O  O52  1  0.435400  0.692270  0.111900  1.0  -0.555
