# generated using pymatgen
data_NiH3(CO2)3
_symmetry_space_group_name_H-M   'P 1'
_cell_length_a   8.26100000
_cell_length_b   11.64140000
_cell_length_c   8.83320000
_cell_angle_alpha   90.00000000
_cell_angle_beta   90.00000000
_cell_angle_gamma   90.00000000
_symmetry_Int_Tables_number   1
_chemical_formula_structural   NiH3(CO2)3
_chemical_formula_sum   'Ni4 H12 C12 O24'
_cell_volume   849.48535842
_cell_formula_units_Z   4
loop_
 _symmetry_equiv_pos_site_id
 _symmetry_equiv_pos_as_xyz
  1  'x, y, z'
loop_
 _atom_site_type_symbol
 _atom_site_label
 _atom_site_symmetry_multiplicity
 _atom_site_fract_x
 _atom_site_fract_y
 _atom_site_fract_z
 _atom_site_occupancy
 _atom_site_charge
  Ni  Ni1  1  0.254050  0.250000  0.250000  1.0  0.8877
  Ni  Ni2  1  0.245950  0.750000  0.250000  1.0  0.887
  Ni  Ni3  1  0.745950  0.750000  0.750000  1.0  0.887
  Ni  Ni4  1  0.754050  0.250000  0.750000  1.0  0.8877
  H  H5  1  0.584200  0.282800  0.436900  1.0  0.0774
  H  H6  1  0.915800  0.717200  0.436900  1.0  0.0766
  H  H7  1  0.915800  0.782800  0.063100  1.0  0.0765
  H  H8  1  0.584200  0.217200  0.063100  1.0  0.0768
  H  H9  1  0.415800  0.717200  0.563100  1.0  0.0765
  H  H10  1  0.084200  0.282800  0.563100  1.0  0.0763
  H  H11  1  0.084200  0.217200  0.936900  1.0  0.0767
  H  H12  1  0.415800  0.782800  0.936900  1.0  0.077
  H  H13  1  0.250000  0.500000  0.194000  1.0  0.0504
  H  H14  1  0.250000  0.000000  0.306000  1.0  0.0488
  H  H15  1  0.750000  0.500000  0.806000  1.0  0.0488
  H  H16  1  0.750000  0.000000  0.694000  1.0  0.0504
  C  C17  1  0.524800  0.224620  0.483000  1.0  0.7393
  C  C18  1  0.975200  0.775380  0.483000  1.0  0.7387
  C  C19  1  0.975200  0.724620  0.017000  1.0  0.7398
  C  C20  1  0.524800  0.275380  0.017000  1.0  0.7387
  C  C21  1  0.475200  0.775380  0.517000  1.0  0.7389
  C  C22  1  0.024800  0.224620  0.517000  1.0  0.7395
  C  C23  1  0.024800  0.275380  0.983000  1.0  0.7386
  C  C24  1  0.475200  0.724620  0.983000  1.0  0.7396
  C  C25  1  0.250000  0.500000  0.299300  1.0  0.7578
  C  C26  1  0.250000  0.000000  0.200700  1.0  0.7597
  C  C27  1  0.750000  0.500000  0.700700  1.0  0.7597
  C  C28  1  0.750000  0.000000  0.799300  1.0  0.7578
  O  O29  1  0.255700  0.405000  0.362480  1.0  -0.547
  O  O30  1  0.407810  0.183750  0.411970  1.0  -0.5655
  O  O31  1  0.567540  0.192690  0.611690  1.0  -0.551
  O  O32  1  0.244300  0.595000  0.362480  1.0  -0.5467
  O  O33  1  0.092190  0.816250  0.411970  1.0  -0.5661
  O  O34  1  0.932460  0.807310  0.611690  1.0  -0.5524
  O  O35  1  0.244300  0.905000  0.137520  1.0  -0.5467
  O  O36  1  0.092190  0.683750  0.088030  1.0  -0.5659
  O  O37  1  0.932460  0.692690  0.888310  1.0  -0.5519
  O  O38  1  0.255700  0.095000  0.137520  1.0  -0.5461
  O  O39  1  0.407810  0.316250  0.088030  1.0  -0.5659
  O  O40  1  0.567540  0.307310  0.888310  1.0  -0.5518
  O  O41  1  0.744300  0.595000  0.637520  1.0  -0.546
  O  O42  1  0.592190  0.816250  0.588030  1.0  -0.5653
  O  O43  1  0.432460  0.807310  0.388310  1.0  -0.5519
  O  O44  1  0.755700  0.405000  0.637520  1.0  -0.5468
  O  O45  1  0.907810  0.183750  0.588030  1.0  -0.565
  O  O46  1  0.067540  0.192690  0.388310  1.0  -0.5516
  O  O47  1  0.755700  0.095000  0.862480  1.0  -0.5467
  O  O48  1  0.907810  0.316250  0.911970  1.0  -0.5647
  O  O49  1  0.067540  0.307310  0.111690  1.0  -0.552
  O  O50  1  0.744300  0.905000  0.862480  1.0  -0.5469
  O  O51  1  0.592190  0.683750  0.911970  1.0  -0.5645
  O  O52  1  0.432460  0.692690  0.111690  1.0  -0.5513
