# generated using pymatgen
data_NdZnH6C15(NO5)2
_symmetry_space_group_name_H-M   'P 1'
_cell_length_a   10.02180000
_cell_length_b   10.71450000
_cell_length_c   10.98700000
_cell_angle_alpha   80.47800000
_cell_angle_beta   72.44200000
_cell_angle_gamma   74.52200000
_symmetry_Int_Tables_number   1
_chemical_formula_structural   NdZnH6C15(NO5)2
_chemical_formula_sum   'Nd2 Zn2 H12 C30 N4 O20'
_cell_volume   1079.37253707
_cell_formula_units_Z   2
loop_
 _symmetry_equiv_pos_site_id
 _symmetry_equiv_pos_as_xyz
  1  'x, y, z'
loop_
 _atom_site_type_symbol
 _atom_site_label
 _atom_site_symmetry_multiplicity
 _atom_site_fract_x
 _atom_site_fract_y
 _atom_site_fract_z
 _atom_site_occupancy
 _atom_site_charge
  Nd  Nd1  1  0.176190  0.195370  0.034860  1.0  2.262
  Nd  Nd2  1  0.823810  0.804630  0.965140  1.0  2.2614
  Zn  Zn3  1  0.292770  0.367850  0.615370  1.0  0.9138
  Zn  Zn4  1  0.707230  0.632150  0.384630  1.0  0.9163
  H  H5  1  0.534000  0.225000  0.380000  1.0  0.0869
  H  H6  1  0.739000  0.056000  0.352000  1.0  0.1193
  H  H7  1  0.804000  0.946000  0.531000  1.0  0.0972
  H  H8  1  0.810000  0.270000  0.493000  1.0  0.1077
  H  H9  1  0.854000  0.179000  0.694000  1.0  0.111
  H  H10  1  0.062000  0.203000  0.731000  1.0  0.0845
  H  H11  1  0.466000  0.775000  0.620000  1.0  0.0866
  H  H12  1  0.261000  0.944000  0.648000  1.0  0.12
  H  H13  1  0.196000  0.054000  0.469000  1.0  0.0983
  H  H14  1  0.190000  0.730000  0.507000  1.0  0.1078
  H  H15  1  0.146000  0.821000  0.306000  1.0  0.1106
  H  H16  1  0.938000  0.797000  0.269000  1.0  0.0843
  C  C17  1  0.559800  0.175600  0.450900  1.0  0.1565
  C  C18  1  0.682800  0.076400  0.433200  1.0  -0.093
  C  C19  1  0.722800  0.007700  0.540300  1.0  -0.1291
  C  C20  1  0.638500  0.037500  0.662600  1.0  -0.0891
  C  C21  1  0.514300  0.136500  0.671700  1.0  0.1182
  C  C22  1  0.687400  0.962100  0.776500  1.0  0.6983
  C  C23  1  0.406900  0.168900  0.797900  1.0  0.677
  C  C24  1  0.110100  0.352300  0.459600  1.0  0.058
  C  C25  1  0.992500  0.338100  0.425000  1.0  -0.1096
  C  C26  1  0.895500  0.273800  0.513400  1.0  -0.1331
  C  C27  1  0.919000  0.222900  0.631100  1.0  -0.1303
  C  C28  1  0.038800  0.238600  0.658100  1.0  0.1217
  C  C29  1  0.220600  0.425900  0.375300  1.0  0.6331
  C  C30  1  0.968000  0.385400  0.294500  1.0  0.762
  C  C31  1  0.059800  0.977800  0.939200  1.0  0.5287
  C  C32  1  0.440200  0.824400  0.549100  1.0  0.1577
  C  C33  1  0.317200  0.923600  0.566800  1.0  -0.0949
  C  C34  1  0.277200  0.992300  0.459700  1.0  -0.1292
  C  C35  1  0.361500  0.962500  0.337400  1.0  -0.09
  C  C36  1  0.485700  0.863500  0.328300  1.0  0.1181
  C  C37  1  0.312600  0.037900  0.223500  1.0  0.6973
  C  C38  1  0.593100  0.831100  0.202100  1.0  0.6775
  C  C39  1  0.889900  0.647700  0.540400  1.0  0.0588
  C  C40  1  0.007500  0.661900  0.575000  1.0  -0.11
  C  C41  1  0.104500  0.726200  0.486600  1.0  -0.1329
  C  C42  1  0.081000  0.777100  0.368900  1.0  -0.1278
  C  C43  1  0.961200  0.761400  0.341900  1.0  0.1222
  C  C44  1  0.779400  0.574100  0.624700  1.0  0.6306
  C  C45  1  0.032000  0.614600  0.705500  1.0  0.7649
  C  C46  1  0.940200  0.022200  0.060800  1.0  0.5292
  N  N47  1  0.477300  0.205400  0.568400  1.0  -0.3277
  N  N48  1  0.132100  0.302200  0.575000  1.0  -0.2992
  N  N49  1  0.522700  0.794600  0.431600  1.0  -0.3249
  N  N50  1  0.867900  0.697800  0.425000  1.0  -0.3013
  O  O51  1  0.755400  0.010600  0.828000  1.0  -0.607
  O  O52  1  0.667400  0.848900  0.809600  1.0  -0.6145
  O  O53  1  0.426200  0.105100  0.898700  1.0  -0.6173
  O  O54  1  0.294000  0.259200  0.795100  1.0  -0.648
  O  O55  1  0.312400  0.440800  0.426600  1.0  -0.5928
  O  O56  1  0.213100  0.468300  0.265200  1.0  -0.5152
  O  O57  1  0.025000  0.305500  0.211800  1.0  -0.7329
  O  O58  1  0.887900  0.493800  0.276700  1.0  -0.6549
  O  O59  1  0.163300  0.033500  0.904400  1.0  -0.6289
  O  O60  1  0.044500  0.891800  0.884500  1.0  -0.6159
  O  O61  1  0.244600  0.989400  0.172000  1.0  -0.6053
  O  O62  1  0.332600  0.151100  0.190400  1.0  -0.6141
  O  O63  1  0.573800  0.894900  0.101300  1.0  -0.6174
  O  O64  1  0.706000  0.740800  0.204900  1.0  -0.6479
  O  O65  1  0.687600  0.559200  0.573400  1.0  -0.5918
  O  O66  1  0.786900  0.531700  0.734800  1.0  -0.5176
  O  O67  1  0.975000  0.694500  0.788200  1.0  -0.7339
  O  O68  1  0.112100  0.506200  0.723300  1.0  -0.656
  O  O69  1  0.836700  0.966500  0.095600  1.0  -0.6276
  O  O70  1  0.955500  0.108200  0.115500  1.0  -0.6165
