# generated using pymatgen
data_PrZnH6C15(NO5)2
_symmetry_space_group_name_H-M   'P 1'
_cell_length_a   10.01540000
_cell_length_b   10.74480000
_cell_length_c   10.97460000
_cell_angle_alpha   80.36300000
_cell_angle_beta   72.52100000
_cell_angle_gamma   74.59300000
_symmetry_Int_Tables_number   1
_chemical_formula_structural   PrZnH6C15(NO5)2
_chemical_formula_sum   'Pr2 Zn2 H12 C30 N4 O20'
_cell_volume   1081.06133722
_cell_formula_units_Z   2
loop_
 _symmetry_equiv_pos_site_id
 _symmetry_equiv_pos_as_xyz
  1  'x, y, z'
loop_
 _atom_site_type_symbol
 _atom_site_label
 _atom_site_symmetry_multiplicity
 _atom_site_fract_x
 _atom_site_fract_y
 _atom_site_fract_z
 _atom_site_occupancy
 _atom_site_charge
  Pr  Pr1  1  0.823130  0.304290  0.464640  1.0  2.1811
  Pr  Pr2  1  0.176870  0.695710  0.535360  1.0  2.1824
  Zn  Zn3  1  0.707080  0.131970  0.884910  1.0  0.9313
  Zn  Zn4  1  0.292920  0.868030  0.115090  1.0  0.9293
  H  H5  1  0.188000  0.226000  0.009000  1.0  0.1031
  H  H6  1  0.144000  0.319000  0.804000  1.0  0.1054
  H  H7  1  0.933000  0.299000  0.772000  1.0  0.1033
  H  H8  1  0.477000  0.274000  0.117000  1.0  0.08
  H  H9  1  0.261000  0.440000  0.151000  1.0  0.106
  H  H10  1  0.201000  0.555000  0.965000  1.0  0.0969
  H  H11  1  0.812000  0.774000  0.991000  1.0  0.1029
  H  H12  1  0.856000  0.681000  0.196000  1.0  0.1054
  H  H13  1  0.067000  0.701000  0.228000  1.0  0.1027
  H  H14  1  0.523000  0.726000  0.883000  1.0  0.0805
  H  H15  1  0.739000  0.560000  0.849000  1.0  0.106
  H  H16  1  0.799000  0.445000  0.035000  1.0  0.0955
  C  C17  1  0.890300  0.147500  0.039700  1.0  0.0819
  C  C18  1  0.780800  0.073000  0.123900  1.0  0.6326
  C  C19  1  0.007500  0.161500  0.074600  1.0  -0.1189
  C  C20  1  0.104000  0.226400  0.986200  1.0  -0.1176
  C  C21  1  0.079500  0.278000  0.869100  1.0  -0.1343
  C  C22  1  0.960200  0.262200  0.842100  1.0  0.1265
  C  C23  1  0.442100  0.323200  0.049500  1.0  0.1388
  C  C24  1  0.319200  0.422200  0.068000  1.0  -0.1214
  C  C25  1  0.278700  0.490800  0.961500  1.0  -0.1039
  C  C26  1  0.362000  0.462100  0.839200  1.0  -0.0967
  C  C27  1  0.486200  0.363100  0.829600  1.0  0.1143
  C  C28  1  0.313200  0.537300  0.725400  1.0  0.6992
  C  C29  1  0.592500  0.330200  0.703400  1.0  0.6838
  C  C30  1  0.939700  0.522400  0.560800  1.0  0.5699
  C  C31  1  0.032800  0.113900  0.204700  1.0  0.7614
  C  C32  1  0.109700  0.852500  0.960300  1.0  0.0818
  C  C33  1  0.219200  0.927000  0.876100  1.0  0.6354
  C  C34  1  0.992500  0.838500  0.925400  1.0  -0.1195
  C  C35  1  0.896000  0.773600  0.013800  1.0  -0.1167
  C  C36  1  0.920500  0.722000  0.130900  1.0  -0.1354
  C  C37  1  0.039800  0.737800  0.157900  1.0  0.1263
  C  C38  1  0.557900  0.676800  0.950500  1.0  0.1378
  C  C39  1  0.680800  0.577800  0.932000  1.0  -0.1198
  C  C40  1  0.721300  0.509200  0.038500  1.0  -0.1036
  C  C41  1  0.638000  0.537900  0.160800  1.0  -0.0937
  C  C42  1  0.513800  0.636900  0.170400  1.0  0.1143
  C  C43  1  0.686800  0.462700  0.274600  1.0  0.7009
  C  C44  1  0.407500  0.669800  0.296600  1.0  0.6829
  C  C45  1  0.060300  0.477600  0.439200  1.0  0.5705
  C  C46  1  0.967200  0.886100  0.795300  1.0  0.7571
  N  N47  1  0.868400  0.197500  0.924700  1.0  -0.3069
  N  N48  1  0.523700  0.293400  0.932600  1.0  -0.3373
  N  N49  1  0.131600  0.802500  0.075300  1.0  -0.3049
  N  N50  1  0.476300  0.706600  0.067400  1.0  -0.3424
  O  O51  1  0.688900  0.058200  0.073080  1.0  -0.5724
  O  O52  1  0.789100  0.030700  0.234090  1.0  -0.5172
  O  O53  1  0.976000  0.192800  0.287370  1.0  -0.7483
  O  O54  1  0.113600  0.005930  0.221650  1.0  -0.668
  O  O55  1  0.704430  0.240440  0.705570  1.0  -0.6208
  O  O56  1  0.572400  0.394710  0.603000  1.0  -0.6184
  O  O57  1  0.333600  0.650090  0.692200  1.0  -0.61
  O  O58  1  0.244200  0.489750  0.674700  1.0  -0.5951
  O  O59  1  0.836800  0.467500  0.594540  1.0  -0.6095
  O  O60  1  0.954500  0.608800  0.614780  1.0  -0.6178
  O  O61  1  0.311100  0.941800  0.926920  1.0  -0.5736
  O  O62  1  0.210900  0.969300  0.765910  1.0  -0.5156
  O  O63  1  0.024000  0.807200  0.712630  1.0  -0.7487
  O  O64  1  0.886400  0.994070  0.778350  1.0  -0.6686
  O  O65  1  0.295570  0.759560  0.294430  1.0  -0.6192
  O  O66  1  0.427600  0.605290  0.397000  1.0  -0.619
  O  O67  1  0.666400  0.349910  0.307800  1.0  -0.6111
  O  O68  1  0.755800  0.510250  0.325300  1.0  -0.5963
  O  O69  1  0.163200  0.532500  0.405460  1.0  -0.6099
  O  O70  1  0.045500  0.391200  0.385220  1.0  -0.6145
