# generated using pymatgen
data_ErZnH6C15(NO5)2
_symmetry_space_group_name_H-M   'P 1'
_cell_length_a   9.95550000
_cell_length_b   10.54610000
_cell_length_c   10.94070000
_cell_angle_alpha   80.76800000
_cell_angle_beta   71.98100000
_cell_angle_gamma   74.56700000
_symmetry_Int_Tables_number   1
_chemical_formula_structural   ErZnH6C15(NO5)2
_chemical_formula_sum   'Er2 Zn2 H12 C30 N4 O20'
_cell_volume   1049.12670271
_cell_formula_units_Z   2
loop_
 _symmetry_equiv_pos_site_id
 _symmetry_equiv_pos_as_xyz
  1  'x, y, z'
loop_
 _atom_site_type_symbol
 _atom_site_label
 _atom_site_symmetry_multiplicity
 _atom_site_fract_x
 _atom_site_fract_y
 _atom_site_fract_z
 _atom_site_occupancy
 _atom_site_charge
  Er  Er1  1  0.173380  0.192790  0.033690  1.0  1.5194
  Er  Er2  1  0.826620  0.807210  0.966310  1.0  1.5184
  Zn  Zn3  1  0.290910  0.367830  0.618070  1.0  0.961
  Zn  Zn4  1  0.709090  0.632170  0.381930  1.0  0.9608
  H  H5  1  0.047000  0.213000  0.741000  1.0  0.0999
  H  H6  1  0.849000  0.188000  0.689000  1.0  0.1962
  H  H7  1  0.807000  0.265000  0.491000  1.0  0.1246
  H  H8  1  0.533000  0.218000  0.390000  1.0  0.1043
  H  H9  1  0.748000  0.061000  0.354000  1.0  0.1284
  H  H10  1  0.806000  0.945000  0.538000  1.0  0.1511
  H  H11  1  0.953000  0.787000  0.259000  1.0  0.0992
  H  H12  1  0.151000  0.812000  0.311000  1.0  0.1949
  H  H13  1  0.193000  0.735000  0.509000  1.0  0.1251
  H  H14  1  0.467000  0.782000  0.610000  1.0  0.1041
  H  H15  1  0.252000  0.939000  0.646000  1.0  0.1282
  H  H16  1  0.194000  0.055000  0.462000  1.0  0.1517
  C  C17  1  0.032600  0.242200  0.659800  1.0  0.1514
  C  C18  1  0.911900  0.228300  0.631700  1.0  -0.1034
  C  C19  1  0.891500  0.277300  0.512000  1.0  -0.1165
  C  C20  1  0.993800  0.338300  0.422100  1.0  -0.0889
  C  C21  1  0.112200  0.351300  0.457700  1.0  0.0921
  C  C22  1  0.226900  0.422600  0.372700  1.0  0.6501
  C  C23  1  0.973400  0.382500  0.289000  1.0  0.7563
  C  C24  1  0.563600  0.170500  0.455300  1.0  0.1654
  C  C25  1  0.689400  0.071000  0.438600  1.0  -0.109
  C  C26  1  0.728600  0.005100  0.546600  1.0  -0.0924
  C  C27  1  0.640900  0.036700  0.669400  1.0  -0.0736
  C  C28  1  0.514800  0.135400  0.677300  1.0  0.1295
  C  C29  1  0.401800  0.168800  0.803200  1.0  0.6895
  C  C30  1  0.689700  0.960900  0.784700  1.0  0.6904
  C  C31  1  0.940700  0.020200  0.062700  1.0  0.5653
  C  C32  1  0.967400  0.757800  0.340200  1.0  0.1515
  C  C33  1  0.088100  0.771700  0.368300  1.0  -0.1039
  C  C34  1  0.108500  0.722700  0.488000  1.0  -0.1156
  C  C35  1  0.006200  0.661700  0.577900  1.0  -0.088
  C  C36  1  0.887800  0.648700  0.542300  1.0  0.0924
  C  C37  1  0.773100  0.577400  0.627300  1.0  0.6487
  C  C38  1  0.026600  0.617500  0.711000  1.0  0.7604
  C  C39  1  0.436400  0.829500  0.544700  1.0  0.1678
  C  C40  1  0.310600  0.929000  0.561400  1.0  -0.1083
  C  C41  1  0.271400  0.994900  0.453400  1.0  -0.0912
  C  C42  1  0.359100  0.963300  0.330600  1.0  -0.0744
  C  C43  1  0.485200  0.864600  0.322700  1.0  0.1299
  C  C44  1  0.598200  0.831200  0.196800  1.0  0.6893
  C  C45  1  0.310300  0.039100  0.215300  1.0  0.6892
  C  C46  1  0.059300  0.979800  0.937300  1.0  0.5648
  N  N47  1  0.130000  0.303300  0.575100  1.0  -0.2785
  N  N48  1  0.478100  0.202700  0.572400  1.0  -0.3111
  N  N49  1  0.870000  0.696700  0.424900  1.0  -0.2799
  N  N50  1  0.521900  0.797300  0.427600  1.0  -0.3088
  O  O51  1  0.223300  0.463100  0.260600  1.0  -0.5105
  O  O52  1  0.317300  0.438500  0.425700  1.0  -0.5625
  O  O53  1  0.031400  0.297900  0.209100  1.0  -0.7217
  O  O54  1  0.895100  0.493300  0.268700  1.0  -0.6248
  O  O55  1  0.288600  0.258400  0.799150  1.0  -0.6261
  O  O56  1  0.418400  0.105600  0.905810  1.0  -0.5838
  O  O57  1  0.671400  0.845800  0.816700  1.0  -0.5836
  O  O58  1  0.756800  0.010400  0.837400  1.0  -0.6256
  O  O59  1  0.958000  0.106000  0.119300  1.0  -0.5898
  O  O60  1  0.838000  0.963000  0.097000  1.0  -0.573
  O  O61  1  0.776700  0.536900  0.739400  1.0  -0.5107
  O  O62  1  0.682700  0.561500  0.574300  1.0  -0.5587
  O  O63  1  0.968600  0.702100  0.790900  1.0  -0.7219
  O  O64  1  0.104900  0.506700  0.731300  1.0  -0.6275
  O  O65  1  0.711400  0.741600  0.200850  1.0  -0.6274
  O  O66  1  0.581600  0.894400  0.094190  1.0  -0.5839
  O  O67  1  0.328600  0.154200  0.183300  1.0  -0.5873
  O  O68  1  0.243200  0.989600  0.162600  1.0  -0.6254
  O  O69  1  0.042000  0.894000  0.880700  1.0  -0.59
  O  O70  1  0.162000  0.037000  0.903000  1.0  -0.5739
