# generated using pymatgen
data_HoZnH6C15(NO5)2
_symmetry_space_group_name_H-M   'P 1'
_cell_length_a   10.01300000
_cell_length_b   10.60700000
_cell_length_c   10.99300000
_cell_angle_alpha   80.74600000
_cell_angle_beta   72.10700000
_cell_angle_gamma   74.53700000
_symmetry_Int_Tables_number   1
_chemical_formula_structural   HoZnH6C15(NO5)2
_chemical_formula_sum   'Ho2 Zn2 H12 C30 N4 O20'
_cell_volume   1066.88468697
_cell_formula_units_Z   2
loop_
 _symmetry_equiv_pos_site_id
 _symmetry_equiv_pos_as_xyz
  1  'x, y, z'
loop_
 _atom_site_type_symbol
 _atom_site_label
 _atom_site_symmetry_multiplicity
 _atom_site_fract_x
 _atom_site_fract_y
 _atom_site_fract_z
 _atom_site_occupancy
 _atom_site_charge
  Ho  Ho1  1  0.826330  0.306920  0.466280  1.0  2.1721
  Ho  Ho2  1  0.173670  0.693080  0.533730  1.0  2.1736
  Zn  Zn3  1  0.708830  0.132280  0.882290  1.0  0.9342
  Zn  Zn4  1  0.291170  0.867720  0.117710  1.0  0.9343
  H  H5  1  0.192000  0.229000  0.008000  1.0  0.1102
  H  H6  1  0.154000  0.314000  0.801000  1.0  0.1013
  H  H7  1  0.954000  0.287000  0.763000  1.0  0.0955
  H  H8  1  0.192000  0.571000  0.962000  1.0  0.1126
  H  H9  1  0.253000  0.451000  0.150000  1.0  0.1053
  H  H10  1  0.462000  0.285000  0.114000  1.0  0.0859
  H  H11  1  0.808000  0.771000  0.992000  1.0  0.1105
  H  H12  1  0.846000  0.686000  0.199000  1.0  0.1011
  H  H13  1  0.046000  0.713000  0.237000  1.0  0.0956
  H  H14  1  0.808000  0.429000  0.038000  1.0  0.1124
  H  H15  1  0.747000  0.549000  0.850000  1.0  0.1057
  H  H16  1  0.538000  0.715000  0.886000  1.0  0.085
  C  C17  1  0.773200  0.077400  0.127100  1.0  0.6335
  C  C18  1  0.888200  0.148700  0.042000  1.0  0.0442
  C  C19  1  0.006200  0.161900  0.077500  1.0  -0.1168
  C  C20  1  0.108300  0.222800  0.987700  1.0  -0.0749
  C  C21  1  0.087400  0.272300  0.868500  1.0  -0.102
  C  C22  1  0.966200  0.258500  0.840400  1.0  0.1464
  C  C23  1  0.027200  0.117100  0.210700  1.0  0.7368
  C  C24  1  0.597200  0.331000  0.697100  1.0  0.6669
  C  C25  1  0.485200  0.364400  0.823300  1.0  0.0956
  C  C26  1  0.359400  0.463200  0.831300  1.0  -0.0812
  C  C27  1  0.271700  0.495100  0.953700  1.0  -0.1176
  C  C28  1  0.311500  0.428500  0.062200  1.0  -0.1078
  C  C29  1  0.437000  0.328500  0.045000  1.0  0.1792
  C  C30  1  0.311400  0.538300  0.715700  1.0  0.6779
  C  C31  1  0.059200  0.479100  0.437300  1.0  0.572
  C  C32  1  0.226800  0.922600  0.872900  1.0  0.6355
  C  C33  1  0.111800  0.851300  0.958000  1.0  0.0439
  C  C34  1  0.993800  0.838100  0.922500  1.0  -0.117
  C  C35  1  0.891700  0.777200  0.012300  1.0  -0.0752
  C  C36  1  0.912600  0.727700  0.131500  1.0  -0.1038
  C  C37  1  0.033800  0.741500  0.159600  1.0  0.1509
  C  C38  1  0.972800  0.882900  0.789300  1.0  0.7327
  C  C39  1  0.402800  0.669000  0.302900  1.0  0.6676
  C  C40  1  0.514800  0.635600  0.176700  1.0  0.0959
  C  C41  1  0.640600  0.536800  0.168700  1.0  -0.0807
  C  C42  1  0.728300  0.504900  0.046300  1.0  -0.1171
  C  C43  1  0.688500  0.571500  0.937800  1.0  -0.1074
  C  C44  1  0.563000  0.671500  0.955000  1.0  0.1777
  C  C45  1  0.688600  0.461700  0.284300  1.0  0.6786
  C  C46  1  0.940800  0.520900  0.562700  1.0  0.5715
  N  N47  1  0.869800  0.197000  0.924900  1.0  -0.3114
  N  N48  1  0.521700  0.297000  0.928200  1.0  -0.3433
  N  N49  1  0.130200  0.803000  0.075100  1.0  -0.3118
  N  N50  1  0.478300  0.703000  0.071800  1.0  -0.3468
  O  O51  1  0.683200  0.061700  0.074500  1.0  -0.5986
  O  O52  1  0.777900  0.036200  0.239000  1.0  -0.527
  O  O53  1  0.969600  0.200900  0.291100  1.0  -0.7458
  O  O54  1  0.105700  0.006800  0.230500  1.0  -0.6655
  O  O55  1  0.711000  0.241400  0.701100  1.0  -0.6496
  O  O56  1  0.580500  0.394600  0.595200  1.0  -0.6108
  O  O57  1  0.329000  0.653900  0.684000  1.0  -0.619
  O  O58  1  0.243700  0.489200  0.663200  1.0  -0.5931
  O  O59  1  0.042600  0.393400  0.381100  1.0  -0.6095
  O  O60  1  0.162000  0.536300  0.403000  1.0  -0.5926
  O  O61  1  0.316800  0.938300  0.925500  1.0  -0.6006
  O  O62  1  0.222100  0.963800  0.761000  1.0  -0.5265
  O  O63  1  0.030400  0.799100  0.708900  1.0  -0.7458
  O  O64  1  0.894300  0.993200  0.769500  1.0  -0.6643
  O  O65  1  0.289000  0.758600  0.298900  1.0  -0.6505
  O  O66  1  0.419500  0.605400  0.404800  1.0  -0.6113
  O  O67  1  0.671000  0.346100  0.316000  1.0  -0.62
  O  O68  1  0.756300  0.510800  0.336800  1.0  -0.5943
  O  O69  1  0.957400  0.606600  0.618900  1.0  -0.6106
  O  O70  1  0.838000  0.463700  0.597000  1.0  -0.5916
