# generated using pymatgen
data_AlPO4
_symmetry_space_group_name_H-M   'P 1'
_cell_length_a   10.18810000
_cell_length_b   14.27910000
_cell_length_c   14.77330000
_cell_angle_alpha   90.00000000
_cell_angle_beta   90.00000000
_cell_angle_gamma   90.00000000
_symmetry_Int_Tables_number   1
_chemical_formula_structural   AlPO4
_chemical_formula_sum   'Al16 P16 O64'
_cell_volume   2149.17386771
_cell_formula_units_Z   16
loop_
 _symmetry_equiv_pos_site_id
 _symmetry_equiv_pos_as_xyz
  1  'x, y, z'
loop_
 _atom_site_type_symbol
 _atom_site_label
 _atom_site_symmetry_multiplicity
 _atom_site_fract_x
 _atom_site_fract_y
 _atom_site_fract_z
 _atom_site_occupancy
 _atom_site_charge
  Al  Al1  1  0.125000  0.125000  0.477710  1.0  1.8807
  Al  Al2  1  0.125000  0.625000  0.977710  1.0  1.8807
  Al  Al3  1  0.625000  0.625000  0.477710  1.0  1.8807
  Al  Al4  1  0.625000  0.125000  0.977710  1.0  1.8807
  Al  Al5  1  0.625000  0.125000  0.272290  1.0  1.882
  Al  Al6  1  0.625000  0.625000  0.772290  1.0  1.882
  Al  Al7  1  0.125000  0.625000  0.272290  1.0  1.882
  Al  Al8  1  0.125000  0.125000  0.772290  1.0  1.882
  Al  Al9  1  0.875000  0.875000  0.522290  1.0  1.882
  Al  Al10  1  0.875000  0.375000  0.022290  1.0  1.882
  Al  Al11  1  0.375000  0.375000  0.522290  1.0  1.882
  Al  Al12  1  0.375000  0.875000  0.022290  1.0  1.882
  Al  Al13  1  0.375000  0.875000  0.727710  1.0  1.8807
  Al  Al14  1  0.375000  0.375000  0.227710  1.0  1.8807
  Al  Al15  1  0.875000  0.375000  0.727710  1.0  1.8807
  Al  Al16  1  0.875000  0.875000  0.227710  1.0  1.8807
  P  P17  1  0.875000  0.536430  0.875000  1.0  1.9169
  P  P18  1  0.875000  0.036430  0.375000  1.0  1.9169
  P  P19  1  0.375000  0.536430  0.375000  1.0  1.9169
  P  P20  1  0.375000  0.036430  0.875000  1.0  1.9169
  P  P21  1  0.875000  0.213570  0.875000  1.0  1.9168
  P  P22  1  0.875000  0.713570  0.375000  1.0  1.9168
  P  P23  1  0.375000  0.213570  0.375000  1.0  1.9168
  P  P24  1  0.375000  0.713570  0.875000  1.0  1.9168
  P  P25  1  0.125000  0.463570  0.125000  1.0  1.9125
  P  P26  1  0.125000  0.963570  0.625000  1.0  1.9125
  P  P27  1  0.625000  0.463570  0.625000  1.0  1.9125
  P  P28  1  0.625000  0.963570  0.125000  1.0  1.9125
  P  P29  1  0.125000  0.786430  0.125000  1.0  1.9126
  P  P30  1  0.125000  0.286430  0.625000  1.0  1.9126
  P  P31  1  0.625000  0.786430  0.625000  1.0  1.9126
  P  P32  1  0.625000  0.286430  0.125000  1.0  1.9126
  O  O33  1  0.921200  0.475600  0.796600  1.0  -0.9802
  O  O34  1  0.986500  0.599000  0.904600  1.0  -0.9162
  O  O35  1  0.921200  0.975600  0.296600  1.0  -0.9802
  O  O36  1  0.986500  0.099000  0.404600  1.0  -0.9162
  O  O37  1  0.421200  0.475600  0.296600  1.0  -0.9802
  O  O38  1  0.486500  0.599000  0.404600  1.0  -0.9162
  O  O39  1  0.421200  0.975600  0.796600  1.0  -0.9802
  O  O40  1  0.486500  0.099000  0.904600  1.0  -0.9162
  O  O41  1  0.828800  0.274400  0.796600  1.0  -0.9817
  O  O42  1  0.763500  0.151000  0.904600  1.0  -0.9168
  O  O43  1  0.828800  0.774400  0.296600  1.0  -0.9817
  O  O44  1  0.763500  0.651000  0.404600  1.0  -0.9168
  O  O45  1  0.328800  0.274400  0.296600  1.0  -0.9817
  O  O46  1  0.263500  0.151000  0.404600  1.0  -0.9168
  O  O47  1  0.328800  0.774400  0.796600  1.0  -0.9817
  O  O48  1  0.263500  0.651000  0.904600  1.0  -0.9168
  O  O49  1  0.828800  0.475600  0.953400  1.0  -0.9813
  O  O50  1  0.763500  0.599000  0.845400  1.0  -0.9164
  O  O51  1  0.828800  0.975600  0.453400  1.0  -0.9813
  O  O52  1  0.763500  0.099000  0.345400  1.0  -0.9164
  O  O53  1  0.328800  0.475600  0.453400  1.0  -0.9813
  O  O54  1  0.263500  0.599000  0.345400  1.0  -0.9164
  O  O55  1  0.328800  0.975600  0.953400  1.0  -0.9813
  O  O56  1  0.263500  0.099000  0.845400  1.0  -0.9164
  O  O57  1  0.921200  0.274400  0.953400  1.0  -0.9814
  O  O58  1  0.986500  0.151000  0.845400  1.0  -0.9168
  O  O59  1  0.921200  0.774400  0.453400  1.0  -0.9814
  O  O60  1  0.986500  0.651000  0.345400  1.0  -0.9168
  O  O61  1  0.421200  0.274400  0.453400  1.0  -0.9814
  O  O62  1  0.486500  0.151000  0.345400  1.0  -0.9168
  O  O63  1  0.421200  0.774400  0.953400  1.0  -0.9814
  O  O64  1  0.486500  0.651000  0.845400  1.0  -0.9168
  O  O65  1  0.078800  0.524400  0.203400  1.0  -0.9812
  O  O66  1  0.013500  0.401000  0.095400  1.0  -0.9175
  O  O67  1  0.078800  0.024400  0.703400  1.0  -0.9812
  O  O68  1  0.013500  0.901000  0.595400  1.0  -0.9175
  O  O69  1  0.578800  0.524400  0.703400  1.0  -0.9812
  O  O70  1  0.513500  0.401000  0.595400  1.0  -0.9175
  O  O71  1  0.578800  0.024400  0.203400  1.0  -0.9812
  O  O72  1  0.513500  0.901000  0.095400  1.0  -0.9175
  O  O73  1  0.171200  0.725600  0.203400  1.0  -0.982
  O  O74  1  0.236500  0.849000  0.095400  1.0  -0.917
  O  O75  1  0.171200  0.225600  0.703400  1.0  -0.982
  O  O76  1  0.236500  0.349000  0.595400  1.0  -0.917
  O  O77  1  0.671200  0.725600  0.703400  1.0  -0.982
  O  O78  1  0.736500  0.849000  0.595400  1.0  -0.917
  O  O79  1  0.671200  0.225600  0.203400  1.0  -0.982
  O  O80  1  0.736500  0.349000  0.095400  1.0  -0.917
  O  O81  1  0.171200  0.524400  0.046600  1.0  -0.9803
  O  O82  1  0.236500  0.401000  0.154600  1.0  -0.9172
  O  O83  1  0.171200  0.024400  0.546600  1.0  -0.9803
  O  O84  1  0.236500  0.901000  0.654600  1.0  -0.9172
  O  O85  1  0.671200  0.524400  0.546600  1.0  -0.9803
  O  O86  1  0.736500  0.401000  0.654600  1.0  -0.9172
  O  O87  1  0.671200  0.024400  0.046600  1.0  -0.9803
  O  O88  1  0.736500  0.901000  0.154600  1.0  -0.9172
  O  O89  1  0.078800  0.725600  0.046600  1.0  -0.981
  O  O90  1  0.013500  0.849000  0.154600  1.0  -0.9171
  O  O91  1  0.078800  0.225600  0.546600  1.0  -0.981
  O  O92  1  0.013500  0.349000  0.654600  1.0  -0.9171
  O  O93  1  0.578800  0.725600  0.546600  1.0  -0.981
  O  O94  1  0.513500  0.849000  0.654600  1.0  -0.9171
  O  O95  1  0.578800  0.225600  0.046600  1.0  -0.981
  O  O96  1  0.513500  0.349000  0.154600  1.0  -0.9171
