# generated using pymatgen
data_Na3Cu6H68C66(N3O13)2
_symmetry_space_group_name_H-M   'P 1'
_cell_length_a   16.36300000
_cell_length_b   16.36300000
_cell_length_c   19.19600000
_cell_angle_alpha   90.00000000
_cell_angle_beta   90.00000000
_cell_angle_gamma   120.00000000
_symmetry_Int_Tables_number   1
_chemical_formula_structural   Na3Cu6H68C66(N3O13)2
_chemical_formula_sum   'Na6 Cu12 H136 C132 N12 O52'
_cell_volume   4451.09879392
_cell_formula_units_Z   2
loop_
 _symmetry_equiv_pos_site_id
 _symmetry_equiv_pos_as_xyz
  1  'x, y, z'
loop_
 _atom_site_type_symbol
 _atom_site_label
 _atom_site_symmetry_multiplicity
 _atom_site_fract_x
 _atom_site_fract_y
 _atom_site_fract_z
 _atom_site_occupancy
 _atom_site_charge
  Na  Na1  1  0.531000  0.030100  0.750000  1.0  0.9831
  Na  Na2  1  0.969900  0.500900  0.750000  1.0  0.9823
  Na  Na3  1  0.499100  0.469000  0.750000  1.0  0.9799
  Na  Na4  1  0.469000  0.969900  0.250000  1.0  0.9838
  Na  Na5  1  0.030100  0.499100  0.250000  1.0  0.982
  Na  Na6  1  0.500900  0.531000  0.250000  1.0  0.982
  Cu  Cu7  1  0.771140  0.317920  0.509040  1.0  0.8714
  Cu  Cu8  1  0.682080  0.453220  0.509040  1.0  0.8707
  Cu  Cu9  1  0.546780  0.228860  0.509040  1.0  0.8702
  Cu  Cu10  1  0.228860  0.682080  0.009040  1.0  0.8713
  Cu  Cu11  1  0.317920  0.546780  0.009040  1.0  0.8713
  Cu  Cu12  1  0.453220  0.771140  0.009040  1.0  0.8716
  Cu  Cu13  1  0.228860  0.682080  0.490960  1.0  0.8693
  Cu  Cu14  1  0.317920  0.546780  0.490960  1.0  0.8689
  Cu  Cu15  1  0.453220  0.771140  0.490960  1.0  0.8693
  Cu  Cu16  1  0.771140  0.317920  0.990960  1.0  0.869
  Cu  Cu17  1  0.682080  0.453220  0.990960  1.0  0.869
  Cu  Cu18  1  0.546780  0.228860  0.990960  1.0  0.8681
  H  H19  1  0.878100  0.356100  0.607200  1.0  0.1108
  H  H20  1  0.921400  0.258700  0.307700  1.0  0.1058
  H  H21  1  0.968000  0.147400  0.330900  1.0  0.1051
  H  H22  1  0.015200  0.133000  0.438900  1.0  0.1092
  H  H23  1  0.015300  0.225700  0.528300  1.0  0.109
  H  H24  1  0.007100  0.354700  0.569800  1.0  0.0882
  H  H25  1  0.984700  0.417200  0.520300  1.0  0.1126
  H  H26  1  0.887200  0.217500  0.621000  1.0  0.0801
  H  H27  1  0.810800  0.172100  0.562100  1.0  0.0882
  H  H28  1  0.745300  0.140100  0.677400  1.0  0.115
  H  H29  1  0.780400  0.247800  0.685600  1.0  0.1087
  H  H30  1  0.643900  0.522000  0.607200  1.0  0.1115
  H  H31  1  0.741300  0.662700  0.307700  1.0  0.1059
  H  H32  1  0.852600  0.820600  0.330900  1.0  0.1044
  H  H33  1  0.867000  0.882200  0.438900  1.0  0.1105
  H  H34  1  0.774300  0.789600  0.528300  1.0  0.1089
  H  H35  1  0.645300  0.652400  0.569800  1.0  0.0904
  H  H36  1  0.582800  0.567500  0.520300  1.0  0.112
  H  H37  1  0.782500  0.669700  0.621000  1.0  0.0788
  H  H38  1  0.827900  0.638700  0.562100  1.0  0.0874
  H  H39  1  0.859900  0.605200  0.677400  1.0  0.1132
  H  H40  1  0.752200  0.532600  0.685600  1.0  0.1099
  H  H41  1  0.478000  0.121900  0.607200  1.0  0.1109
  H  H42  1  0.337300  0.078600  0.307700  1.0  0.1065
  H  H43  1  0.179400  0.032000  0.330900  1.0  0.1043
  H  H44  1  0.117800  0.984800  0.438900  1.0  0.1097
  H  H45  1  0.210400  0.984700  0.528300  1.0  0.1094
  H  H46  1  0.347600  0.992900  0.569800  1.0  0.0915
  H  H47  1  0.432500  0.015300  0.520300  1.0  0.1137
  H  H48  1  0.330300  0.112800  0.621000  1.0  0.0801
  H  H49  1  0.361300  0.189200  0.562100  1.0  0.0874
  H  H50  1  0.394800  0.254700  0.677400  1.0  0.1134
  H  H51  1  0.467400  0.219600  0.685600  1.0  0.1094
  H  H52  1  0.121900  0.643900  0.107200  1.0  0.1117
  H  H53  1  0.078600  0.741300  0.807700  1.0  0.1059
  H  H54  1  0.032000  0.852600  0.830900  1.0  0.1052
  H  H55  1  0.984800  0.867000  0.938900  1.0  0.1094
  H  H56  1  0.984700  0.774300  0.028300  1.0  0.1093
  H  H57  1  0.992900  0.645300  0.069800  1.0  0.0868
  H  H58  1  0.015300  0.582800  0.020300  1.0  0.1127
  H  H59  1  0.112800  0.782500  0.121000  1.0  0.0788
  H  H60  1  0.189200  0.827900  0.062100  1.0  0.0878
  H  H61  1  0.254700  0.859900  0.177400  1.0  0.114
  H  H62  1  0.219600  0.752200  0.185600  1.0  0.1099
  H  H63  1  0.356100  0.478000  0.107200  1.0  0.1115
  H  H64  1  0.258700  0.337300  0.807700  1.0  0.1058
  H  H65  1  0.147400  0.179400  0.830900  1.0  0.1042
  H  H66  1  0.133000  0.117800  0.938900  1.0  0.1106
  H  H67  1  0.225700  0.210400  0.028300  1.0  0.1087
  H  H68  1  0.354700  0.347600  0.069800  1.0  0.0904
  H  H69  1  0.417200  0.432500  0.020300  1.0  0.112
  H  H70  1  0.217500  0.330300  0.121000  1.0  0.0811
  H  H71  1  0.172100  0.361300  0.062100  1.0  0.0881
  H  H72  1  0.140100  0.394800  0.177400  1.0  0.1141
  H  H73  1  0.247800  0.467400  0.185600  1.0  0.1092
  H  H74  1  0.522000  0.878100  0.107200  1.0  0.111
  H  H75  1  0.662700  0.921400  0.807700  1.0  0.1065
  H  H76  1  0.820600  0.968000  0.830900  1.0  0.1043
  H  H77  1  0.882200  0.015200  0.938900  1.0  0.1104
  H  H78  1  0.789600  0.015300  0.028300  1.0  0.1089
  H  H79  1  0.652400  0.007100  0.069800  1.0  0.0893
  H  H80  1  0.567500  0.984700  0.020300  1.0  0.1125
  H  H81  1  0.669700  0.887200  0.121000  1.0  0.0787
  H  H82  1  0.638700  0.810800  0.062100  1.0  0.0875
  H  H83  1  0.605200  0.745300  0.177400  1.0  0.1151
  H  H84  1  0.532600  0.780400  0.185600  1.0  0.109
  H  H85  1  0.121900  0.643900  0.392800  1.0  0.1114
  H  H86  1  0.078600  0.741300  0.692300  1.0  0.106
  H  H87  1  0.032000  0.852600  0.669100  1.0  0.1052
  H  H88  1  0.984800  0.867000  0.561100  1.0  0.1097
  H  H89  1  0.984700  0.774300  0.471700  1.0  0.1101
  H  H90  1  0.992900  0.645300  0.430200  1.0  0.0878
  H  H91  1  0.015300  0.582800  0.479700  1.0  0.1128
  H  H92  1  0.112800  0.782500  0.379000  1.0  0.0788
  H  H93  1  0.189200  0.827900  0.437900  1.0  0.0865
  H  H94  1  0.254700  0.859900  0.322600  1.0  0.1151
  H  H95  1  0.219600  0.752200  0.314400  1.0  0.1085
  H  H96  1  0.356100  0.478000  0.392800  1.0  0.1121
  H  H97  1  0.258700  0.337300  0.692300  1.0  0.1058
  H  H98  1  0.147400  0.179400  0.669100  1.0  0.1047
  H  H99  1  0.133000  0.117800  0.561100  1.0  0.111
  H  H100  1  0.225700  0.210400  0.471700  1.0  0.1097
  H  H101  1  0.354700  0.347600  0.430200  1.0  0.0916
  H  H102  1  0.417200  0.432500  0.479700  1.0  0.1119
  H  H103  1  0.217500  0.330300  0.379000  1.0  0.0802
  H  H104  1  0.172100  0.361300  0.437900  1.0  0.0871
  H  H105  1  0.140100  0.394800  0.322600  1.0  0.1149
  H  H106  1  0.247800  0.467400  0.314400  1.0  0.1089
  H  H107  1  0.522000  0.878100  0.392800  1.0  0.1121
  H  H108  1  0.662700  0.921400  0.692300  1.0  0.1064
  H  H109  1  0.820600  0.968000  0.669100  1.0  0.1042
  H  H110  1  0.882200  0.015200  0.561100  1.0  0.1111
  H  H111  1  0.789600  0.015300  0.471700  1.0  0.1096
  H  H112  1  0.652400  0.007100  0.430200  1.0  0.0911
  H  H113  1  0.567500  0.984700  0.479700  1.0  0.112
  H  H114  1  0.669700  0.887200  0.379000  1.0  0.0805
  H  H115  1  0.638700  0.810800  0.437900  1.0  0.0868
  H  H116  1  0.605200  0.745300  0.322600  1.0  0.1154
  H  H117  1  0.532600  0.780400  0.314400  1.0  0.1091
  H  H118  1  0.878100  0.356100  0.892800  1.0  0.1119
  H  H119  1  0.921400  0.258700  0.192300  1.0  0.1059
  H  H120  1  0.968000  0.147400  0.169100  1.0  0.105
  H  H121  1  0.015200  0.133000  0.061100  1.0  0.1097
  H  H122  1  0.015300  0.225700  0.971700  1.0  0.1097
  H  H123  1  0.007100  0.354700  0.930200  1.0  0.0902
  H  H124  1  0.984700  0.417200  0.979700  1.0  0.1124
  H  H125  1  0.887200  0.217500  0.879000  1.0  0.0813
  H  H126  1  0.810800  0.172100  0.937900  1.0  0.0874
  H  H127  1  0.745300  0.140100  0.822600  1.0  0.115
  H  H128  1  0.780400  0.247800  0.814400  1.0  0.1091
  H  H129  1  0.643900  0.522000  0.892800  1.0  0.1118
  H  H130  1  0.741300  0.662700  0.192300  1.0  0.1057
  H  H131  1  0.852600  0.820600  0.169100  1.0  0.1041
  H  H132  1  0.867000  0.882200  0.061100  1.0  0.1104
  H  H133  1  0.774300  0.789600  0.971700  1.0  0.1098
  H  H134  1  0.645300  0.652400  0.930200  1.0  0.0912
  H  H135  1  0.582800  0.567500  0.979700  1.0  0.112
  H  H136  1  0.782500  0.669700  0.879000  1.0  0.081
  H  H137  1  0.827900  0.638700  0.937900  1.0  0.0866
  H  H138  1  0.859900  0.605200  0.822600  1.0  0.1138
  H  H139  1  0.752200  0.532600  0.814400  1.0  0.1093
  H  H140  1  0.478000  0.121900  0.892800  1.0  0.1108
  H  H141  1  0.337300  0.078600  0.192300  1.0  0.1066
  H  H142  1  0.179400  0.032000  0.169100  1.0  0.1044
  H  H143  1  0.117800  0.984800  0.061100  1.0  0.11
  H  H144  1  0.210400  0.984700  0.971700  1.0  0.1102
  H  H145  1  0.347600  0.992900  0.930200  1.0  0.0908
  H  H146  1  0.432500  0.015300  0.979700  1.0  0.1138
  H  H147  1  0.330300  0.112800  0.879000  1.0  0.0793
  H  H148  1  0.361300  0.189200  0.937900  1.0  0.0863
  H  H149  1  0.394800  0.254700  0.822600  1.0  0.1139
  H  H150  1  0.467400  0.219600  0.814400  1.0  0.1083
  H  H151  1  0.666667  0.333333  0.415900  1.0  0.3849
  H  H152  1  0.333333  0.666667  0.915900  1.0  0.3849
  H  H153  1  0.333333  0.666667  0.584100  1.0  0.3818
  H  H154  1  0.666667  0.333333  0.084100  1.0  0.3818
  C  C155  1  0.934400  0.306900  0.406900  1.0  -0.1133
  C  C156  1  0.938200  0.251800  0.352700  1.0  -0.0603
  C  C157  1  0.967700  0.185500  0.366800  1.0  -0.0862
  C  C158  1  0.995400  0.176500  0.430900  1.0  -0.1073
  C  C159  1  0.994400  0.231100  0.484400  1.0  -0.0862
  C  C160  1  0.962100  0.295600  0.473900  1.0  0.0531
  C  C161  1  0.899700  0.374500  0.389700  1.0  0.6923
  C  C162  1  0.962900  0.352900  0.535300  1.0  -0.0903
  C  C163  1  0.834900  0.219300  0.598700  1.0  -0.0175
  C  C164  1  0.757200  0.196500  0.652200  1.0  -0.3634
  C  C165  1  0.664900  0.180900  0.623400  1.0  0.7311
  C  C166  1  0.693100  0.627500  0.406900  1.0  -0.1119
  C  C167  1  0.748200  0.686400  0.352700  1.0  -0.0595
  C  C168  1  0.814500  0.782200  0.366800  1.0  -0.086
  C  C169  1  0.823500  0.818900  0.430900  1.0  -0.1041
  C  C170  1  0.768900  0.763300  0.484400  1.0  -0.084
  C  C171  1  0.704400  0.666500  0.473900  1.0  0.0536
  C  C172  1  0.625500  0.525200  0.389700  1.0  0.6894
  C  C173  1  0.647100  0.610000  0.535300  1.0  -0.0884
  C  C174  1  0.780700  0.615600  0.598700  1.0  -0.0161
  C  C175  1  0.803500  0.560700  0.652200  1.0  -0.3618
  C  C176  1  0.819100  0.484000  0.623400  1.0  0.7341
  C  C177  1  0.372500  0.065600  0.406900  1.0  -0.1135
  C  C178  1  0.313600  0.061800  0.352700  1.0  -0.0626
  C  C179  1  0.217800  0.032300  0.366800  1.0  -0.0862
  C  C180  1  0.181100  0.004600  0.430900  1.0  -0.1099
  C  C181  1  0.236700  0.005600  0.484400  1.0  -0.0865
  C  C182  1  0.333500  0.037900  0.473900  1.0  0.0538
  C  C183  1  0.474800  0.100300  0.389700  1.0  0.6902
  C  C184  1  0.390000  0.037100  0.535300  1.0  -0.088
  C  C185  1  0.384400  0.165100  0.598700  1.0  -0.0154
  C  C186  1  0.439300  0.242800  0.652200  1.0  -0.3633
  C  C187  1  0.516000  0.335100  0.623400  1.0  0.7337
  C  C188  1  0.065600  0.693100  0.906900  1.0  -0.1137
  C  C189  1  0.061800  0.748200  0.852700  1.0  -0.0615
  C  C190  1  0.032300  0.814500  0.866800  1.0  -0.0835
  C  C191  1  0.004600  0.823500  0.930900  1.0  -0.1062
  C  C192  1  0.005600  0.768900  0.984400  1.0  -0.0851
  C  C193  1  0.037900  0.704400  0.973900  1.0  0.0538
  C  C194  1  0.100300  0.625500  0.889700  1.0  0.6921
  C  C195  1  0.037100  0.647100  0.035300  1.0  -0.0883
  C  C196  1  0.165100  0.780700  0.098700  1.0  -0.0164
  C  C197  1  0.242800  0.803500  0.152200  1.0  -0.3639
  C  C198  1  0.335100  0.819100  0.123400  1.0  0.7326
  C  C199  1  0.306900  0.372500  0.906900  1.0  -0.1123
  C  C200  1  0.251800  0.313600  0.852700  1.0  -0.0603
  C  C201  1  0.185500  0.217800  0.866800  1.0  -0.0867
  C  C202  1  0.176500  0.181100  0.930900  1.0  -0.1065
  C  C203  1  0.231100  0.236700  0.984400  1.0  -0.0849
  C  C204  1  0.295600  0.333500  0.973900  1.0  0.0538
  C  C205  1  0.374500  0.474800  0.889700  1.0  0.6909
  C  C206  1  0.352900  0.390000  0.035300  1.0  -0.0875
  C  C207  1  0.219300  0.384400  0.098700  1.0  -0.0165
  C  C208  1  0.196500  0.439300  0.152200  1.0  -0.3638
  C  C209  1  0.180900  0.516000  0.123400  1.0  0.7327
  C  C210  1  0.627500  0.934400  0.906900  1.0  -0.1135
  C  C211  1  0.686400  0.938200  0.852700  1.0  -0.0613
  C  C212  1  0.782200  0.967700  0.866800  1.0  -0.0866
  C  C213  1  0.818900  0.995400  0.930900  1.0  -0.1095
  C  C214  1  0.763300  0.994400  0.984400  1.0  -0.0867
  C  C215  1  0.666500  0.962100  0.973900  1.0  0.0536
  C  C216  1  0.525200  0.899700  0.889700  1.0  0.6902
  C  C217  1  0.610000  0.962900  0.035300  1.0  -0.0859
  C  C218  1  0.615600  0.834900  0.098700  1.0  -0.0146
  C  C219  1  0.560700  0.757200  0.152200  1.0  -0.3626
  C  C220  1  0.484000  0.664900  0.123400  1.0  0.733
  C  C221  1  0.065600  0.693100  0.593100  1.0  -0.1154
  C  C222  1  0.061800  0.748200  0.647300  1.0  -0.0601
  C  C223  1  0.032300  0.814500  0.633200  1.0  -0.0855
  C  C224  1  0.004600  0.823500  0.569100  1.0  -0.1065
  C  C225  1  0.005600  0.768900  0.515600  1.0  -0.0836
  C  C226  1  0.037900  0.704400  0.526100  1.0  0.0532
  C  C227  1  0.100300  0.625500  0.610300  1.0  0.6953
  C  C228  1  0.037100  0.647100  0.464700  1.0  -0.0886
  C  C229  1  0.165100  0.780700  0.401300  1.0  -0.018
  C  C230  1  0.242800  0.803500  0.347800  1.0  -0.3635
  C  C231  1  0.335100  0.819100  0.376600  1.0  0.7317
  C  C232  1  0.306900  0.372500  0.593100  1.0  -0.1149
  C  C233  1  0.251800  0.313600  0.647300  1.0  -0.0594
  C  C234  1  0.185500  0.217800  0.633200  1.0  -0.0884
  C  C235  1  0.176500  0.181100  0.569100  1.0  -0.1059
  C  C236  1  0.231100  0.236700  0.515600  1.0  -0.0841
  C  C237  1  0.295600  0.333500  0.526100  1.0  0.0529
  C  C238  1  0.374500  0.474800  0.610300  1.0  0.6922
  C  C239  1  0.352900  0.390000  0.464700  1.0  -0.0878
  C  C240  1  0.219300  0.384400  0.401300  1.0  -0.0174
  C  C241  1  0.196500  0.439300  0.347800  1.0  -0.3634
  C  C242  1  0.180900  0.516000  0.376600  1.0  0.7321
  C  C243  1  0.627500  0.934400  0.593100  1.0  -0.1155
  C  C244  1  0.686400  0.938200  0.647300  1.0  -0.0604
  C  C245  1  0.782200  0.967700  0.633200  1.0  -0.0872
  C  C246  1  0.818900  0.995400  0.569100  1.0  -0.1102
  C  C247  1  0.763300  0.994400  0.515600  1.0  -0.086
  C  C248  1  0.666500  0.962100  0.526100  1.0  0.0532
  C  C249  1  0.525200  0.899700  0.610300  1.0  0.6917
  C  C250  1  0.610000  0.962900  0.464700  1.0  -0.0868
  C  C251  1  0.615600  0.834900  0.401300  1.0  -0.0161
  C  C252  1  0.560700  0.757200  0.347800  1.0  -0.3628
  C  C253  1  0.484000  0.664900  0.376600  1.0  0.7326
  C  C254  1  0.934400  0.306900  0.093100  1.0  -0.1163
  C  C255  1  0.938200  0.251800  0.147300  1.0  -0.0609
  C  C256  1  0.967700  0.185500  0.133200  1.0  -0.086
  C  C257  1  0.995400  0.176500  0.069100  1.0  -0.1064
  C  C258  1  0.994400  0.231100  0.015600  1.0  -0.0856
  C  C259  1  0.962100  0.295600  0.026100  1.0  0.0523
  C  C260  1  0.899700  0.374500  0.110300  1.0  0.6936
  C  C261  1  0.962900  0.352900  0.964700  1.0  -0.091
  C  C262  1  0.834900  0.219300  0.901300  1.0  -0.0186
  C  C263  1  0.757200  0.196500  0.847800  1.0  -0.3643
  C  C264  1  0.664900  0.180900  0.876600  1.0  0.7305
  C  C265  1  0.693100  0.627500  0.093100  1.0  -0.1138
  C  C266  1  0.748200  0.686400  0.147300  1.0  -0.0582
  C  C267  1  0.814500  0.782200  0.133200  1.0  -0.0866
  C  C268  1  0.823500  0.818900  0.069100  1.0  -0.1043
  C  C269  1  0.768900  0.763300  0.015600  1.0  -0.0833
  C  C270  1  0.704400  0.666500  0.026100  1.0  0.0535
  C  C271  1  0.625500  0.525200  0.110300  1.0  0.6925
  C  C272  1  0.647100  0.610000  0.964700  1.0  -0.0887
  C  C273  1  0.780700  0.615600  0.901300  1.0  -0.0179
  C  C274  1  0.803500  0.560700  0.847800  1.0  -0.3622
  C  C275  1  0.819100  0.484000  0.876600  1.0  0.7332
  C  C276  1  0.372500  0.065600  0.093100  1.0  -0.1147
  C  C277  1  0.313600  0.061800  0.147300  1.0  -0.0613
  C  C278  1  0.217800  0.032300  0.133200  1.0  -0.0877
  C  C279  1  0.181100  0.004600  0.069100  1.0  -0.109
  C  C280  1  0.236700  0.005600  0.015600  1.0  -0.0855
  C  C281  1  0.333500  0.037900  0.026100  1.0  0.0531
  C  C282  1  0.474800  0.100300  0.110300  1.0  0.694
  C  C283  1  0.390000  0.037100  0.964700  1.0  -0.0891
  C  C284  1  0.384400  0.165100  0.901300  1.0  -0.0164
  C  C285  1  0.439300  0.242800  0.847800  1.0  -0.362
  C  C286  1  0.516000  0.335100  0.876600  1.0  0.7329
  N  N287  1  0.869000  0.314500  0.567700  1.0  -0.2718
  N  N288  1  0.685500  0.554500  0.567700  1.0  -0.2747
  N  N289  1  0.445500  0.131000  0.567700  1.0  -0.2718
  N  N290  1  0.131000  0.685500  0.067700  1.0  -0.2723
  N  N291  1  0.314500  0.445500  0.067700  1.0  -0.2725
  N  N292  1  0.554500  0.869000  0.067700  1.0  -0.2714
  N  N293  1  0.131000  0.685500  0.432300  1.0  -0.2697
  N  N294  1  0.314500  0.445500  0.432300  1.0  -0.271
  N  N295  1  0.554500  0.869000  0.432300  1.0  -0.2705
  N  N296  1  0.869000  0.314500  0.932300  1.0  -0.2702
  N  N297  1  0.685500  0.554500  0.932300  1.0  -0.2723
  N  N298  1  0.445500  0.131000  0.932300  1.0  -0.2692
  O  O299  1  0.861100  0.398400  0.437600  1.0  -0.6114
  O  O300  1  0.912300  0.406800  0.329100  1.0  -0.7444
  O  O301  1  0.666500  0.220300  0.565000  1.0  -0.6735
  O  O302  1  0.592000  0.133600  0.657200  1.0  -0.5794
  O  O303  1  0.601600  0.462700  0.437600  1.0  -0.614
  O  O304  1  0.593200  0.505500  0.329100  1.0  -0.7401
  O  O305  1  0.779700  0.446200  0.565000  1.0  -0.6725
  O  O306  1  0.866400  0.458400  0.657200  1.0  -0.5782
  O  O307  1  0.537300  0.138900  0.437600  1.0  -0.6122
  O  O308  1  0.494500  0.087700  0.329100  1.0  -0.7409
  O  O309  1  0.553800  0.333500  0.565000  1.0  -0.6729
  O  O310  1  0.541600  0.408000  0.657200  1.0  -0.5784
  O  O311  1  0.138900  0.601600  0.937600  1.0  -0.6134
  O  O312  1  0.087700  0.593200  0.829100  1.0  -0.7439
  O  O313  1  0.333500  0.779700  0.065000  1.0  -0.6736
  O  O314  1  0.408000  0.866400  0.157200  1.0  -0.5785
  O  O315  1  0.398400  0.537300  0.937600  1.0  -0.6127
  O  O316  1  0.406800  0.494500  0.829100  1.0  -0.7422
  O  O317  1  0.220300  0.553800  0.065000  1.0  -0.6723
  O  O318  1  0.133600  0.541600  0.157200  1.0  -0.5792
  O  O319  1  0.462700  0.861100  0.937600  1.0  -0.6128
  O  O320  1  0.505500  0.912300  0.829100  1.0  -0.7392
  O  O321  1  0.446200  0.666500  0.065000  1.0  -0.6741
  O  O322  1  0.458400  0.592000  0.157200  1.0  -0.578
  O  O323  1  0.138900  0.601600  0.562400  1.0  -0.6128
  O  O324  1  0.087700  0.593200  0.670900  1.0  -0.7394
  O  O325  1  0.333500  0.779700  0.435000  1.0  -0.6745
  O  O326  1  0.408000  0.866400  0.342800  1.0  -0.5793
  O  O327  1  0.398400  0.537300  0.562400  1.0  -0.6135
  O  O328  1  0.406800  0.494500  0.670900  1.0  -0.7392
  O  O329  1  0.220300  0.553800  0.435000  1.0  -0.6745
  O  O330  1  0.133600  0.541600  0.342800  1.0  -0.5793
  O  O331  1  0.462700  0.861100  0.562400  1.0  -0.6117
  O  O332  1  0.505500  0.912300  0.670900  1.0  -0.7365
  O  O333  1  0.446200  0.666500  0.435000  1.0  -0.6751
  O  O334  1  0.458400  0.592000  0.342800  1.0  -0.5783
  O  O335  1  0.861100  0.398400  0.062400  1.0  -0.6121
  O  O336  1  0.912300  0.406800  0.170900  1.0  -0.7426
  O  O337  1  0.666500  0.220300  0.935000  1.0  -0.6753
  O  O338  1  0.592000  0.133600  0.842800  1.0  -0.5798
  O  O339  1  0.601600  0.462700  0.062400  1.0  -0.6131
  O  O340  1  0.593200  0.505500  0.170900  1.0  -0.7393
  O  O341  1  0.779700  0.446200  0.935000  1.0  -0.6733
  O  O342  1  0.866400  0.458400  0.842800  1.0  -0.5788
  O  O343  1  0.537300  0.138900  0.062400  1.0  -0.6127
  O  O344  1  0.494500  0.087700  0.170900  1.0  -0.7386
  O  O345  1  0.553800  0.333500  0.935000  1.0  -0.6743
  O  O346  1  0.541600  0.408000  0.842800  1.0  -0.5787
  O  O347  1  0.666667  0.333333  0.467000  1.0  -0.9091
  O  O348  1  0.333333  0.666667  0.967000  1.0  -0.9091
  O  O349  1  0.333333  0.666667  0.533000  1.0  -0.9083
  O  O350  1  0.666667  0.333333  0.033000  1.0  -0.9083
