# generated using pymatgen
data_CoH10C18S2(NO)4
_symmetry_space_group_name_H-M   'P 1'
_cell_length_a   14.45620000
_cell_length_b   14.91130000
_cell_length_c   14.91130000
_cell_angle_alpha   108.09700000
_cell_angle_beta   94.88550000
_cell_angle_gamma   85.11450000
_symmetry_Int_Tables_number   1
_chemical_formula_structural   CoH10C18S2(NO)4
_chemical_formula_sum   'Co6 H60 C108 S12 N24 O24'
_cell_volume   3038.33117260
_cell_formula_units_Z   6
loop_
 _symmetry_equiv_pos_site_id
 _symmetry_equiv_pos_as_xyz
  1  'x, y, z'
loop_
 _atom_site_type_symbol
 _atom_site_label
 _atom_site_symmetry_multiplicity
 _atom_site_fract_x
 _atom_site_fract_y
 _atom_site_fract_z
 _atom_site_occupancy
 _atom_site_charge
  Co  Co1  1  0.784180  0.862950  0.261330  1.0  0.9149
  Co  Co2  1  0.715820  0.261330  0.862950  1.0  0.9137
  Co  Co3  1  0.215820  0.137050  0.738670  1.0  0.9137
  Co  Co4  1  0.284180  0.738670  0.137050  1.0  0.9145
  Co  Co5  1  0.250000  0.608080  0.608080  1.0  0.8028
  Co  Co6  1  0.750000  0.391920  0.391920  1.0  0.8035
  H  H7  1  0.823000  0.036300  0.033500  1.0  0.1451
  H  H8  1  0.047100  0.894800  0.773400  1.0  0.1227
  H  H9  1  0.148400  0.798700  0.667300  1.0  0.0762
  H  H10  1  0.143100  0.594700  0.782100  1.0  0.0795
  H  H11  1  0.038800  0.684300  0.889900  1.0  0.1269
  H  H12  1  0.823700  0.164000  0.519200  1.0  0.1028
  H  H13  1  0.117300  0.046800  0.331000  1.0  0.126
  H  H14  1  0.239500  0.952900  0.252700  1.0  0.081
  H  H15  1  0.115000  0.721700  0.230700  1.0  0.0844
  H  H16  1  0.989300  0.808500  0.307300  1.0  0.1236
  H  H17  1  0.440900  0.306600  0.499800  1.0  0.1372
  H  H18  1  0.308000  0.442000  0.237000  1.0  0.1338
  H  H19  1  0.280400  0.535900  0.138700  1.0  0.0758
  H  H20  1  0.350600  0.762200  0.345400  1.0  0.0835
  H  H21  1  0.380400  0.674500  0.449500  1.0  0.1165
  H  H22  1  0.677000  0.033500  0.036300  1.0  0.1468
  H  H23  1  0.452900  0.773400  0.894800  1.0  0.1239
  H  H24  1  0.351600  0.667300  0.798700  1.0  0.0756
  H  H25  1  0.356900  0.782100  0.594700  1.0  0.0791
  H  H26  1  0.461200  0.889900  0.684300  1.0  0.1249
  H  H27  1  0.676300  0.519200  0.164000  1.0  0.1042
  H  H28  1  0.382700  0.331000  0.046800  1.0  0.124
  H  H29  1  0.260500  0.252700  0.952900  1.0  0.0811
  H  H30  1  0.385000  0.230700  0.721700  1.0  0.0832
  H  H31  1  0.510700  0.307300  0.808500  1.0  0.1231
  H  H32  1  0.059100  0.499800  0.306600  1.0  0.1348
  H  H33  1  0.192000  0.237000  0.442000  1.0  0.1316
  H  H34  1  0.219600  0.138700  0.535900  1.0  0.0771
  H  H35  1  0.149400  0.345400  0.762200  1.0  0.0828
  H  H36  1  0.119600  0.449500  0.674500  1.0  0.1158
  H  H37  1  0.177000  0.963700  0.966500  1.0  0.1449
  H  H38  1  0.952900  0.105200  0.226600  1.0  0.1232
  H  H39  1  0.851600  0.201300  0.332700  1.0  0.076
  H  H40  1  0.856900  0.405300  0.217900  1.0  0.0802
  H  H41  1  0.961200  0.315700  0.110100  1.0  0.1259
  H  H42  1  0.176300  0.836000  0.480800  1.0  0.1039
  H  H43  1  0.882700  0.953200  0.669000  1.0  0.127
  H  H44  1  0.760500  0.047100  0.747300  1.0  0.0816
  H  H45  1  0.885000  0.278300  0.769300  1.0  0.0836
  H  H46  1  0.010700  0.191500  0.692700  1.0  0.1234
  H  H47  1  0.559100  0.693400  0.500200  1.0  0.136
  H  H48  1  0.692000  0.558000  0.763000  1.0  0.1335
  H  H49  1  0.719600  0.464100  0.861300  1.0  0.0762
  H  H50  1  0.649400  0.237800  0.654600  1.0  0.0849
  H  H51  1  0.619600  0.325500  0.550500  1.0  0.116
  H  H52  1  0.323000  0.966500  0.963700  1.0  0.1456
  H  H53  1  0.547100  0.226600  0.105200  1.0  0.1238
  H  H54  1  0.648400  0.332700  0.201300  1.0  0.0754
  H  H55  1  0.643100  0.217900  0.405300  1.0  0.0798
  H  H56  1  0.538800  0.110100  0.315700  1.0  0.1254
  H  H57  1  0.323700  0.480800  0.836000  1.0  0.1038
  H  H58  1  0.617300  0.669000  0.953200  1.0  0.1247
  H  H59  1  0.739500  0.747300  0.047100  1.0  0.0797
  H  H60  1  0.615000  0.769300  0.278300  1.0  0.0822
  H  H61  1  0.489300  0.692700  0.191500  1.0  0.1232
  H  H62  1  0.940900  0.500200  0.693400  1.0  0.1324
  H  H63  1  0.808000  0.763000  0.558000  1.0  0.1323
  H  H64  1  0.780400  0.861300  0.464100  1.0  0.0776
  H  H65  1  0.850600  0.654600  0.237800  1.0  0.0835
  H  H66  1  0.880400  0.550500  0.325500  1.0  0.1154
  C  C67  1  0.844710  0.895960  0.122960  1.0  0.6267
  C  C68  1  0.882600  0.906960  0.037240  1.0  0.0936
  C  C69  1  0.862140  0.982430  0.004210  1.0  -0.1228
  C  C70  1  0.965850  0.858810  0.912070  1.0  0.1128
  C  C71  1  0.030550  0.800130  0.843430  1.0  0.0473
  C  C72  1  0.065110  0.832870  0.776050  1.0  -0.1612
  C  C73  1  0.125710  0.775020  0.712960  1.0  0.1657
  C  C74  1  0.122260  0.656130  0.779550  1.0  0.1682
  C  C75  1  0.060450  0.709420  0.844840  1.0  -0.1442
  C  C76  1  0.711110  0.020340  0.409140  1.0  0.6352
  C  C77  1  0.813290  0.035600  0.417340  1.0  0.0888
  C  C78  1  0.854620  0.112560  0.474760  1.0  -0.1049
  C  C79  1  0.957470  0.994800  0.371860  1.0  0.1189
  C  C80  1  0.037170  0.937880  0.324320  1.0  0.0235
  C  C81  1  0.114560  0.980080  0.309280  1.0  -0.1827
  C  C82  1  0.187130  0.923420  0.262360  1.0  0.1651
  C  C83  1  0.114380  0.788740  0.249500  1.0  0.1553
  C  C84  1  0.039270  0.839960  0.295460  1.0  -0.1756
  C  C85  1  0.360010  0.453250  0.645830  1.0  0.6461
  C  C86  1  0.379340  0.441000  0.545240  1.0  0.0912
  C  C87  1  0.417950  0.361840  0.484200  1.0  -0.1425
  C  C88  1  0.367780  0.488850  0.417650  1.0  0.1261
  C  C89  1  0.347930  0.548280  0.354580  1.0  -0.0028
  C  C90  1  0.317460  0.507660  0.260700  1.0  -0.1914
  C  C91  1  0.301260  0.564240  0.202660  1.0  0.1736
  C  C92  1  0.342190  0.696170  0.323110  1.0  0.1632
  C  C93  1  0.360000  0.644450  0.385630  1.0  -0.1762
  C  C94  1  0.655290  0.122960  0.895960  1.0  0.6264
  C  C95  1  0.617400  0.037240  0.906960  1.0  0.096
  C  C96  1  0.637860  0.004210  0.982430  1.0  -0.1184
  C  C97  1  0.534150  0.912070  0.858810  1.0  0.1123
  C  C98  1  0.469450  0.843430  0.800130  1.0  0.0452
  C  C99  1  0.434890  0.776050  0.832870  1.0  -0.1607
  C  C100  1  0.374290  0.712960  0.775020  1.0  0.1653
  C  C101  1  0.377740  0.779550  0.656130  1.0  0.1688
  C  C102  1  0.439550  0.844840  0.709420  1.0  -0.1456
  C  C103  1  0.788890  0.409140  0.020340  1.0  0.6359
  C  C104  1  0.686710  0.417340  0.035600  1.0  0.0893
  C  C105  1  0.645380  0.474760  0.112560  1.0  -0.1054
  C  C106  1  0.542530  0.371860  0.994800  1.0  0.1206
  C  C107  1  0.462830  0.324320  0.937880  1.0  0.0248
  C  C108  1  0.385440  0.309280  0.980080  1.0  -0.1762
  C  C109  1  0.312870  0.262360  0.923420  1.0  0.1654
  C  C110  1  0.385620  0.249500  0.788740  1.0  0.1561
  C  C111  1  0.460730  0.295460  0.839960  1.0  -0.1756
  C  C112  1  0.139990  0.645830  0.453250  1.0  0.6454
  C  C113  1  0.120660  0.545240  0.441000  1.0  0.0928
  C  C114  1  0.082050  0.484200  0.361840  1.0  -0.139
  C  C115  1  0.132220  0.417650  0.488850  1.0  0.1261
  C  C116  1  0.152070  0.354580  0.548280  1.0  -0.0027
  C  C117  1  0.182540  0.260700  0.507660  1.0  -0.1853
  C  C118  1  0.198740  0.202660  0.564240  1.0  0.1726
  C  C119  1  0.157810  0.323110  0.696170  1.0  0.1643
  C  C120  1  0.140000  0.385630  0.644450  1.0  -0.1742
  C  C121  1  0.155290  0.104040  0.877040  1.0  0.6269
  C  C122  1  0.117400  0.093040  0.962760  1.0  0.0932
  C  C123  1  0.137860  0.017570  0.995790  1.0  -0.1213
  C  C124  1  0.034150  0.141190  0.087930  1.0  0.1108
  C  C125  1  0.969450  0.199870  0.156570  1.0  0.0446
  C  C126  1  0.934890  0.167130  0.223950  1.0  -0.1609
  C  C127  1  0.874290  0.224980  0.287040  1.0  0.1658
  C  C128  1  0.877740  0.343870  0.220450  1.0  0.1686
  C  C129  1  0.939550  0.290580  0.155160  1.0  -0.1453
  C  C130  1  0.288890  0.979660  0.590860  1.0  0.6361
  C  C131  1  0.186710  0.964400  0.582660  1.0  0.0892
  C  C132  1  0.145380  0.887440  0.525240  1.0  -0.1037
  C  C133  1  0.042530  0.005200  0.628140  1.0  0.1207
  C  C134  1  0.962830  0.062120  0.675680  1.0  0.0246
  C  C135  1  0.885440  0.019920  0.690720  1.0  -0.1825
  C  C136  1  0.812870  0.076580  0.737640  1.0  0.165
  C  C137  1  0.885620  0.211260  0.750500  1.0  0.1553
  C  C138  1  0.960730  0.160040  0.704540  1.0  -0.1753
  C  C139  1  0.639990  0.546750  0.354170  1.0  0.645
  C  C140  1  0.620660  0.559000  0.454760  1.0  0.0907
  C  C141  1  0.582050  0.638160  0.515800  1.0  -0.14
  C  C142  1  0.632220  0.511150  0.582350  1.0  0.1261
  C  C143  1  0.652070  0.451720  0.645420  1.0  -0.0016
  C  C144  1  0.682540  0.492340  0.739300  1.0  -0.1878
  C  C145  1  0.698740  0.435760  0.797340  1.0  0.1733
  C  C146  1  0.657810  0.303830  0.676890  1.0  0.1625
  C  C147  1  0.640000  0.355550  0.614370  1.0  -0.1759
  C  C148  1  0.344710  0.877040  0.104040  1.0  0.627
  C  C149  1  0.382600  0.962760  0.093040  1.0  0.0949
  C  C150  1  0.362140  0.995790  0.017570  1.0  -0.1188
  C  C151  1  0.465850  0.087930  0.141190  1.0  0.1125
  C  C152  1  0.530550  0.156570  0.199870  1.0  0.0453
  C  C153  1  0.565110  0.223950  0.167130  1.0  -0.1618
  C  C154  1  0.625710  0.287040  0.224980  1.0  0.1659
  C  C155  1  0.622260  0.220450  0.343870  1.0  0.1682
  C  C156  1  0.560450  0.155160  0.290580  1.0  -0.1446
  C  C157  1  0.211110  0.590860  0.979660  1.0  0.6364
  C  C158  1  0.313290  0.582660  0.964400  1.0  0.0892
  C  C159  1  0.354620  0.525240  0.887440  1.0  -0.1036
  C  C160  1  0.457470  0.628140  0.005200  1.0  0.1197
  C  C161  1  0.537170  0.675680  0.062120  1.0  0.0239
  C  C162  1  0.614560  0.690720  0.019920  1.0  -0.1776
  C  C163  1  0.687130  0.737640  0.076580  1.0  0.1655
  C  C164  1  0.614380  0.750500  0.211260  1.0  0.1567
  C  C165  1  0.539270  0.704540  0.160040  1.0  -0.1752
  C  C166  1  0.860010  0.354170  0.546750  1.0  0.6447
  C  C167  1  0.879340  0.454760  0.559000  1.0  0.0915
  C  C168  1  0.917950  0.515800  0.638160  1.0  -0.14
  C  C169  1  0.867780  0.582350  0.511150  1.0  0.1255
  C  C170  1  0.847930  0.645420  0.451720  1.0  -0.0011
  C  C171  1  0.817460  0.739300  0.492340  1.0  -0.1841
  C  C172  1  0.801260  0.797340  0.435760  1.0  0.1708
  C  C173  1  0.842190  0.676890  0.303830  1.0  0.1647
  C  C174  1  0.860000  0.614370  0.355550  1.0  -0.1767
  S  S175  1  0.916240  0.966680  0.903460  1.0  0.1063
  S  S176  1  0.970240  0.104090  0.455910  1.0  0.1049
  S  S177  1  0.419180  0.376070  0.375250  1.0  0.0879
  S  S178  1  0.583760  0.903460  0.966680  1.0  0.1071
  S  S179  1  0.529760  0.455910  0.104090  1.0  0.1068
  S  S180  1  0.080820  0.375250  0.376070  1.0  0.0884
  S  S181  1  0.083760  0.033320  0.096540  1.0  0.1046
  S  S182  1  0.029760  0.895910  0.544090  1.0  0.107
  S  S183  1  0.580820  0.623930  0.624750  1.0  0.0902
  S  S184  1  0.416240  0.096540  0.033320  1.0  0.1049
  S  S185  1  0.470240  0.544090  0.895910  1.0  0.107
  S  S186  1  0.919180  0.624750  0.623930  1.0  0.0898
  N  N187  1  0.942260  0.837030  0.984830  1.0  -0.3206
  N  N188  1  0.154140  0.686800  0.712900  1.0  -0.3454
  N  N189  1  0.871570  0.968210  0.358810  1.0  -0.3636
  N  N190  1  0.187160  0.828790  0.229850  1.0  -0.3247
  N  N191  1  0.350690  0.513180  0.507540  1.0  -0.386
  N  N192  1  0.313400  0.657500  0.231980  1.0  -0.3247
  N  N193  1  0.557740  0.984830  0.837030  1.0  -0.3185
  N  N194  1  0.345860  0.712900  0.686800  1.0  -0.3436
  N  N195  1  0.628430  0.358810  0.968210  1.0  -0.3635
  N  N196  1  0.312840  0.229850  0.828790  1.0  -0.3232
  N  N197  1  0.149310  0.507540  0.513180  1.0  -0.3863
  N  N198  1  0.186600  0.231980  0.657500  1.0  -0.3242
  N  N199  1  0.057740  0.162970  0.015170  1.0  -0.32
  N  N200  1  0.845860  0.313200  0.287100  1.0  -0.3451
  N  N201  1  0.128430  0.031790  0.641190  1.0  -0.3636
  N  N202  1  0.812840  0.171210  0.770150  1.0  -0.325
  N  N203  1  0.649310  0.486820  0.492460  1.0  -0.3866
  N  N204  1  0.686600  0.342500  0.768020  1.0  -0.3238
  N  N205  1  0.442260  0.015170  0.162970  1.0  -0.3201
  N  N206  1  0.654140  0.287100  0.313200  1.0  -0.3431
  N  N207  1  0.371570  0.641190  0.031790  1.0  -0.364
  N  N208  1  0.687160  0.770150  0.171210  1.0  -0.3227
  N  N209  1  0.850690  0.492460  0.486820  1.0  -0.3868
  N  N210  1  0.813400  0.768020  0.342500  1.0  -0.3244
  O  O211  1  0.877170  0.827790  0.152570  1.0  -0.5554
  O  O212  1  0.780920  0.952310  0.162730  1.0  -0.5703
  O  O213  1  0.685920  0.945400  0.344480  1.0  -0.581
  O  O214  1  0.660300  0.079480  0.462480  1.0  -0.5618
  O  O215  1  0.301870  0.522190  0.682590  1.0  -0.5803
  O  O216  1  0.398800  0.397840  0.685260  1.0  -0.5254
  O  O217  1  0.622830  0.152570  0.827790  1.0  -0.5569
  O  O218  1  0.719080  0.162730  0.952310  1.0  -0.5704
  O  O219  1  0.814080  0.344480  0.945400  1.0  -0.5819
  O  O220  1  0.839700  0.462480  0.079480  1.0  -0.5622
  O  O221  1  0.198130  0.682590  0.522190  1.0  -0.5798
  O  O222  1  0.101200  0.685260  0.397840  1.0  -0.5275
  O  O223  1  0.122830  0.172210  0.847430  1.0  -0.5579
  O  O224  1  0.219080  0.047690  0.837270  1.0  -0.5709
  O  O225  1  0.314080  0.054600  0.655520  1.0  -0.5819
  O  O226  1  0.339700  0.920520  0.537520  1.0  -0.562
  O  O227  1  0.698130  0.477810  0.317410  1.0  -0.5806
  O  O228  1  0.601200  0.602160  0.314740  1.0  -0.5263
  O  O229  1  0.377170  0.847430  0.172210  1.0  -0.557
  O  O230  1  0.280920  0.837270  0.047690  1.0  -0.5696
  O  O231  1  0.185920  0.655520  0.054600  1.0  -0.5809
  O  O232  1  0.160300  0.537520  0.920520  1.0  -0.5617
  O  O233  1  0.801870  0.317410  0.477810  1.0  -0.5788
  O  O234  1  0.898800  0.314740  0.602160  1.0  -0.5261
