# generated using pymatgen
data_La(C7O2)3
_symmetry_space_group_name_H-M   'P 1'
_cell_length_a   33.40000000
_cell_length_b   13.87870000
_cell_length_c   13.57900000
_cell_angle_alpha   90.00000000
_cell_angle_beta   104.96600000
_cell_angle_gamma   90.00000000
_symmetry_Int_Tables_number   1
_chemical_formula_structural   La(C7O2)3
_chemical_formula_sum   'La8 C168 O48'
_cell_volume   6081.01107225
_cell_formula_units_Z   8
loop_
 _symmetry_equiv_pos_site_id
 _symmetry_equiv_pos_as_xyz
  1  'x, y, z'
loop_
 _atom_site_type_symbol
 _atom_site_label
 _atom_site_symmetry_multiplicity
 _atom_site_fract_x
 _atom_site_fract_y
 _atom_site_fract_z
 _atom_site_occupancy
 _atom_site_charge
  La  La1  1  0.812080  0.212600  0.561370  1.0  2.1177
  La  La2  1  0.312080  0.712600  0.561370  1.0  2.1177
  La  La3  1  0.187920  0.212600  0.938630  1.0  2.119
  La  La4  1  0.687920  0.712600  0.938630  1.0  2.119
  La  La5  1  0.187920  0.787400  0.438630  1.0  2.1195
  La  La6  1  0.687920  0.287400  0.438630  1.0  2.1195
  La  La7  1  0.812080  0.787400  0.061370  1.0  2.1188
  La  La8  1  0.312080  0.287400  0.061370  1.0  2.1188
  C  C9  1  0.426110  0.216840  0.966480  1.0  -0.0727
  C  C10  1  0.455670  0.287860  0.968610  1.0  -0.0203
  C  C11  1  0.491270  0.266420  0.937940  1.0  0.0081
  C  C12  1  0.497320  0.173970  0.905130  1.0  -0.0147
  C  C13  1  0.467760  0.102950  0.903000  1.0  0.0449
  C  C14  1  0.432160  0.124390  0.933670  1.0  0.0356
  C  C15  1  0.536650  0.150920  0.875720  1.0  -0.0703
  C  C16  1  0.560450  0.222270  0.845130  1.0  0.0622
  C  C17  1  0.598370  0.201770  0.826530  1.0  0.0411
  C  C18  1  0.614070  0.107650  0.836730  1.0  -0.039
  C  C19  1  0.589990  0.034370  0.860930  1.0  0.0484
  C  C20  1  0.551880  0.055540  0.881760  1.0  0.0651
  C  C21  1  0.656390  0.089900  0.825100  1.0  -0.0446
  C  C22  1  0.672990  0.145930  0.760860  1.0  0.0892
  C  C23  1  0.714070  0.135670  0.756040  1.0  -0.1264
  C  C24  1  0.739190  0.067260  0.818050  1.0  0.0476
  C  C25  1  0.722590  0.007720  0.879220  1.0  -0.0991
  C  C26  1  0.681270  0.016750  0.883140  1.0  -0.0005
  C  C27  1  0.730970  0.194000  0.681600  1.0  0.6958
  C  C28  1  0.749940  0.932400  0.942900  1.0  0.6456
  C  C29  1  0.388510  0.238300  0.004500  1.0  0.6622
  C  C30  1  0.926110  0.716840  0.966480  1.0  -0.0727
  C  C31  1  0.955670  0.787860  0.968610  1.0  -0.0203
  C  C32  1  0.991270  0.766420  0.937940  1.0  0.0081
  C  C33  1  0.997320  0.673970  0.905130  1.0  -0.0147
  C  C34  1  0.967760  0.602950  0.903000  1.0  0.0449
  C  C35  1  0.932160  0.624390  0.933670  1.0  0.0356
  C  C36  1  0.036650  0.650920  0.875720  1.0  -0.0703
  C  C37  1  0.060450  0.722270  0.845130  1.0  0.0622
  C  C38  1  0.098370  0.701770  0.826530  1.0  0.0411
  C  C39  1  0.114070  0.607650  0.836730  1.0  -0.039
  C  C40  1  0.089990  0.534370  0.860930  1.0  0.0484
  C  C41  1  0.051880  0.555540  0.881760  1.0  0.0651
  C  C42  1  0.156390  0.589900  0.825100  1.0  -0.0446
  C  C43  1  0.172990  0.645930  0.760860  1.0  0.0892
  C  C44  1  0.214070  0.635670  0.756040  1.0  -0.1264
  C  C45  1  0.239190  0.567260  0.818050  1.0  0.0476
  C  C46  1  0.222590  0.507720  0.879220  1.0  -0.0991
  C  C47  1  0.181270  0.516750  0.883140  1.0  -0.0005
  C  C48  1  0.230970  0.694000  0.681600  1.0  0.6958
  C  C49  1  0.249940  0.432400  0.942900  1.0  0.6456
  C  C50  1  0.888510  0.738300  0.004500  1.0  0.6622
  C  C51  1  0.573890  0.216840  0.533520  1.0  -0.0726
  C  C52  1  0.544330  0.287860  0.531390  1.0  -0.0214
  C  C53  1  0.508730  0.266420  0.562060  1.0  0.0071
  C  C54  1  0.502680  0.173970  0.594870  1.0  -0.0129
  C  C55  1  0.532240  0.102950  0.597000  1.0  0.0445
  C  C56  1  0.567840  0.124390  0.566330  1.0  0.0369
  C  C57  1  0.463350  0.150920  0.624280  1.0  -0.0715
  C  C58  1  0.439550  0.222270  0.654870  1.0  0.0612
  C  C59  1  0.401630  0.201770  0.673470  1.0  0.0411
  C  C60  1  0.385930  0.107650  0.663270  1.0  -0.0397
  C  C61  1  0.410010  0.034370  0.639070  1.0  0.047
  C  C62  1  0.448120  0.055540  0.618240  1.0  0.0653
  C  C63  1  0.343610  0.089900  0.674900  1.0  -0.0443
  C  C64  1  0.327010  0.145930  0.739140  1.0  0.0886
  C  C65  1  0.285930  0.135670  0.743960  1.0  -0.126
  C  C66  1  0.260810  0.067260  0.681950  1.0  0.0472
  C  C67  1  0.277410  0.007720  0.620780  1.0  -0.0977
  C  C68  1  0.318730  0.016750  0.616860  1.0  -0.0018
  C  C69  1  0.269030  0.194000  0.818400  1.0  0.6952
  C  C70  1  0.250060  0.932400  0.557100  1.0  0.6422
  C  C71  1  0.611490  0.238300  0.495500  1.0  0.6633
  C  C72  1  0.073890  0.716840  0.533520  1.0  -0.0726
  C  C73  1  0.044330  0.787860  0.531390  1.0  -0.0214
  C  C74  1  0.008730  0.766420  0.562060  1.0  0.0071
  C  C75  1  0.002680  0.673970  0.594870  1.0  -0.0129
  C  C76  1  0.032240  0.602950  0.597000  1.0  0.0445
  C  C77  1  0.067840  0.624390  0.566330  1.0  0.0369
  C  C78  1  0.963350  0.650920  0.624280  1.0  -0.0715
  C  C79  1  0.939550  0.722270  0.654870  1.0  0.0612
  C  C80  1  0.901630  0.701770  0.673470  1.0  0.0411
  C  C81  1  0.885930  0.607650  0.663270  1.0  -0.0397
  C  C82  1  0.910010  0.534370  0.639070  1.0  0.047
  C  C83  1  0.948120  0.555540  0.618240  1.0  0.0653
  C  C84  1  0.843610  0.589900  0.674900  1.0  -0.0443
  C  C85  1  0.827010  0.645930  0.739140  1.0  0.0886
  C  C86  1  0.785930  0.635670  0.743960  1.0  -0.126
  C  C87  1  0.760810  0.567260  0.681950  1.0  0.0472
  C  C88  1  0.777410  0.507720  0.620780  1.0  -0.0977
  C  C89  1  0.818730  0.516750  0.616860  1.0  -0.0018
  C  C90  1  0.769030  0.694000  0.818400  1.0  0.6952
  C  C91  1  0.750060  0.432400  0.557100  1.0  0.6422
  C  C92  1  0.111490  0.738300  0.495500  1.0  0.6633
  C  C93  1  0.573890  0.783160  0.033520  1.0  -0.0729
  C  C94  1  0.544330  0.712140  0.031390  1.0  -0.0218
  C  C95  1  0.508730  0.733580  0.062060  1.0  0.0051
  C  C96  1  0.502680  0.826030  0.094870  1.0  -0.0135
  C  C97  1  0.532240  0.897050  0.097000  1.0  0.0446
  C  C98  1  0.567840  0.875610  0.066330  1.0  0.0383
  C  C99  1  0.463350  0.849080  0.124280  1.0  -0.0721
  C  C100  1  0.439550  0.777730  0.154870  1.0  0.0622
  C  C101  1  0.401630  0.798230  0.173470  1.0  0.0407
  C  C102  1  0.385930  0.892350  0.163270  1.0  -0.0395
  C  C103  1  0.410010  0.965630  0.139070  1.0  0.0465
  C  C104  1  0.448120  0.944460  0.118240  1.0  0.0622
  C  C105  1  0.343610  0.910100  0.174900  1.0  -0.0447
  C  C106  1  0.327010  0.854070  0.239140  1.0  0.0898
  C  C107  1  0.285930  0.864330  0.243960  1.0  -0.1257
  C  C108  1  0.260810  0.932740  0.181950  1.0  0.0474
  C  C109  1  0.277410  0.992280  0.120780  1.0  -0.0976
  C  C110  1  0.318730  0.983250  0.116860  1.0  -0.001
  C  C111  1  0.269030  0.806000  0.318400  1.0  0.6949
  C  C112  1  0.250060  0.067600  0.057100  1.0  0.6437
  C  C113  1  0.611490  0.761700  0.995500  1.0  0.6625
  C  C114  1  0.073890  0.283160  0.033520  1.0  -0.0729
  C  C115  1  0.044330  0.212140  0.031390  1.0  -0.0218
  C  C116  1  0.008730  0.233580  0.062060  1.0  0.0051
  C  C117  1  0.002680  0.326030  0.094870  1.0  -0.0135
  C  C118  1  0.032240  0.397050  0.097000  1.0  0.0446
  C  C119  1  0.067840  0.375610  0.066330  1.0  0.0383
  C  C120  1  0.963350  0.349080  0.124280  1.0  -0.0721
  C  C121  1  0.939550  0.277730  0.154870  1.0  0.0622
  C  C122  1  0.901630  0.298230  0.173470  1.0  0.0407
  C  C123  1  0.885930  0.392350  0.163270  1.0  -0.0395
  C  C124  1  0.910010  0.465630  0.139070  1.0  0.0465
  C  C125  1  0.948120  0.444460  0.118240  1.0  0.0622
  C  C126  1  0.843610  0.410100  0.174900  1.0  -0.0447
  C  C127  1  0.827010  0.354070  0.239140  1.0  0.0898
  C  C128  1  0.785930  0.364330  0.243960  1.0  -0.1257
  C  C129  1  0.760810  0.432740  0.181950  1.0  0.0474
  C  C130  1  0.777410  0.492280  0.120780  1.0  -0.0976
  C  C131  1  0.818730  0.483250  0.116860  1.0  -0.001
  C  C132  1  0.769030  0.306000  0.318400  1.0  0.6949
  C  C133  1  0.750060  0.567600  0.057100  1.0  0.6437
  C  C134  1  0.111490  0.261700  0.995500  1.0  0.6625
  C  C135  1  0.426110  0.783160  0.466480  1.0  -0.0731
  C  C136  1  0.455670  0.712140  0.468610  1.0  -0.0222
  C  C137  1  0.491270  0.733580  0.437940  1.0  0.0065
  C  C138  1  0.497320  0.826030  0.405130  1.0  -0.0154
  C  C139  1  0.467760  0.897050  0.403000  1.0  0.0445
  C  C140  1  0.432160  0.875610  0.433670  1.0  0.0382
  C  C141  1  0.536650  0.849080  0.375720  1.0  -0.0708
  C  C142  1  0.560450  0.777730  0.345130  1.0  0.0632
  C  C143  1  0.598370  0.798230  0.326530  1.0  0.0417
  C  C144  1  0.614070  0.892350  0.336730  1.0  -0.0388
  C  C145  1  0.589990  0.965630  0.360930  1.0  0.0471
  C  C146  1  0.551880  0.944460  0.381760  1.0  0.0609
  C  C147  1  0.656390  0.910100  0.325100  1.0  -0.0451
  C  C148  1  0.672990  0.854070  0.260860  1.0  0.0888
  C  C149  1  0.714070  0.864330  0.256040  1.0  -0.1259
  C  C150  1  0.739190  0.932740  0.318050  1.0  0.0481
  C  C151  1  0.722590  0.992280  0.379220  1.0  -0.0993
  C  C152  1  0.681270  0.983250  0.383140  1.0  0.0003
  C  C153  1  0.730970  0.806000  0.181600  1.0  0.6953
  C  C154  1  0.749940  0.067600  0.442900  1.0  0.6436
  C  C155  1  0.388510  0.761700  0.504500  1.0  0.6621
  C  C156  1  0.926110  0.283160  0.466480  1.0  -0.0731
  C  C157  1  0.955670  0.212140  0.468610  1.0  -0.0222
  C  C158  1  0.991270  0.233580  0.437940  1.0  0.0065
  C  C159  1  0.997320  0.326030  0.405130  1.0  -0.0154
  C  C160  1  0.967760  0.397050  0.403000  1.0  0.0445
  C  C161  1  0.932160  0.375610  0.433670  1.0  0.0382
  C  C162  1  0.036650  0.349080  0.375720  1.0  -0.0708
  C  C163  1  0.060450  0.277730  0.345130  1.0  0.0632
  C  C164  1  0.098370  0.298230  0.326530  1.0  0.0417
  C  C165  1  0.114070  0.392350  0.336730  1.0  -0.0388
  C  C166  1  0.089990  0.465630  0.360930  1.0  0.0471
  C  C167  1  0.051880  0.444460  0.381760  1.0  0.0609
  C  C168  1  0.156390  0.410100  0.325100  1.0  -0.0451
  C  C169  1  0.172990  0.354070  0.260860  1.0  0.0888
  C  C170  1  0.214070  0.364330  0.256040  1.0  -0.1259
  C  C171  1  0.239190  0.432740  0.318050  1.0  0.0481
  C  C172  1  0.222590  0.492280  0.379220  1.0  -0.0993
  C  C173  1  0.181270  0.483250  0.383140  1.0  0.0003
  C  C174  1  0.230970  0.306000  0.181600  1.0  0.6953
  C  C175  1  0.249940  0.567600  0.442900  1.0  0.6436
  C  C176  1  0.888510  0.261700  0.504500  1.0  0.6621
  O  O177  1  0.768050  0.179530  0.682320  1.0  -0.7406
  O  O178  1  0.706670  0.251920  0.625860  1.0  -0.6516
  O  O179  1  0.733520  0.856480  0.967320  1.0  -0.7996
  O  O180  1  0.787870  0.945980  0.967500  1.0  -0.599
  O  O181  1  0.366440  0.170890  0.020880  1.0  -0.6102
  O  O182  1  0.380190  0.326050  0.017090  1.0  -0.6668
  O  O183  1  0.268050  0.679530  0.682320  1.0  -0.7406
  O  O184  1  0.206670  0.751920  0.625860  1.0  -0.6516
  O  O185  1  0.233520  0.356480  0.967320  1.0  -0.7996
  O  O186  1  0.287870  0.445980  0.967500  1.0  -0.599
  O  O187  1  0.866440  0.670890  0.020880  1.0  -0.6102
  O  O188  1  0.880190  0.826050  0.017090  1.0  -0.6666
  O  O189  1  0.231950  0.179530  0.817680  1.0  -0.7381
  O  O190  1  0.293330  0.251920  0.874140  1.0  -0.6532
  O  O191  1  0.266480  0.856480  0.532680  1.0  -0.7991
  O  O192  1  0.212130  0.945980  0.532500  1.0  -0.6039
  O  O193  1  0.633560  0.170890  0.479120  1.0  -0.6117
  O  O194  1  0.619810  0.326050  0.482910  1.0  -0.6668
  O  O195  1  0.731950  0.679530  0.817680  1.0  -0.7381
  O  O196  1  0.793330  0.751920  0.874140  1.0  -0.6532
  O  O197  1  0.766480  0.356480  0.532680  1.0  -0.7991
  O  O198  1  0.712130  0.445980  0.532500  1.0  -0.6039
  O  O199  1  0.133560  0.670890  0.479120  1.0  -0.6117
  O  O200  1  0.119810  0.826050  0.482910  1.0  -0.6675
  O  O201  1  0.231950  0.820470  0.317680  1.0  -0.7376
  O  O202  1  0.293330  0.748080  0.374140  1.0  -0.654
  O  O203  1  0.266480  0.143520  0.032680  1.0  -0.7996
  O  O204  1  0.212130  0.054020  0.032500  1.0  -0.6024
  O  O205  1  0.633560  0.829110  0.979120  1.0  -0.6138
  O  O206  1  0.619810  0.673950  0.982910  1.0  -0.6662
  O  O207  1  0.731950  0.320470  0.317680  1.0  -0.7376
  O  O208  1  0.793330  0.248080  0.374140  1.0  -0.654
  O  O209  1  0.766480  0.643520  0.032680  1.0  -0.7996
  O  O210  1  0.712130  0.554020  0.032500  1.0  -0.6024
  O  O211  1  0.133560  0.329110  0.979120  1.0  -0.6138
  O  O212  1  0.119810  0.173950  0.982910  1.0  -0.6658
  O  O213  1  0.768050  0.820470  0.182320  1.0  -0.7395
  O  O214  1  0.706670  0.748080  0.125860  1.0  -0.652
  O  O215  1  0.733520  0.143520  0.467320  1.0  -0.7999
  O  O216  1  0.787870  0.054020  0.467500  1.0  -0.6003
  O  O217  1  0.366440  0.829110  0.520880  1.0  -0.6117
  O  O218  1  0.380190  0.673950  0.517090  1.0  -0.6657
  O  O219  1  0.268050  0.320470  0.182320  1.0  -0.7395
  O  O220  1  0.206670  0.248080  0.125860  1.0  -0.652
  O  O221  1  0.233520  0.643520  0.467320  1.0  -0.7999
  O  O222  1  0.287870  0.554020  0.467500  1.0  -0.6003
  O  O223  1  0.866440  0.329110  0.520880  1.0  -0.6117
  O  O224  1  0.880190  0.173950  0.517090  1.0  -0.6665
