# generated using pymatgen
data_Ba2CaMo12P8(HO5)10
_symmetry_space_group_name_H-M   'P 1'
_cell_length_a   14.37410000
_cell_length_b   13.90690000
_cell_length_c   21.71870000
_cell_angle_alpha   90.00000000
_cell_angle_beta   106.94500000
_cell_angle_gamma   90.00000000
_symmetry_Int_Tables_number   1
_chemical_formula_structural   Ba2CaMo12P8(HO5)10
_chemical_formula_sum   'Ba4 Ca2 Mo24 P16 H20 O100'
_cell_volume   4153.06161100
_cell_formula_units_Z   2
loop_
 _symmetry_equiv_pos_site_id
 _symmetry_equiv_pos_as_xyz
  1  'x, y, z'
loop_
 _atom_site_type_symbol
 _atom_site_label
 _atom_site_symmetry_multiplicity
 _atom_site_fract_x
 _atom_site_fract_y
 _atom_site_fract_z
 _atom_site_occupancy
 _atom_site_charge
  Ba  Ba1  1  0.972410  0.428620  0.180860  1.0  1.6721
  Ba  Ba2  1  0.027590  0.928620  0.319140  1.0  1.6704
  Ba  Ba3  1  0.027590  0.571380  0.819140  1.0  1.6699
  Ba  Ba4  1  0.972410  0.071380  0.680860  1.0  1.6719
  Ca  Ca5  1  0.500000  0.500000  0.000000  1.0  1.4437
  Ca  Ca6  1  0.500000  0.000000  0.500000  1.0  1.4437
  Mo  Mo7  1  0.671450  0.288720  0.992070  1.0  1.2905
  Mo  Mo8  1  0.658150  0.404520  0.896470  1.0  1.2796
  Mo  Mo9  1  0.346900  0.342930  0.083430  1.0  1.2502
  Mo  Mo10  1  0.330610  0.273360  0.970300  1.0  1.2852
  Mo  Mo11  1  0.686400  0.569920  0.161040  1.0  1.2626
  Mo  Mo12  1  0.693050  0.384970  0.145570  1.0  1.2742
  Mo  Mo13  1  0.328550  0.788720  0.507930  1.0  1.2903
  Mo  Mo14  1  0.341850  0.904520  0.603530  1.0  1.2748
  Mo  Mo15  1  0.653100  0.842930  0.416570  1.0  1.2505
  Mo  Mo16  1  0.669390  0.773360  0.529700  1.0  1.2866
  Mo  Mo17  1  0.313600  0.069920  0.338960  1.0  1.2631
  Mo  Mo18  1  0.306950  0.884970  0.354430  1.0  1.2706
  Mo  Mo19  1  0.328550  0.711280  0.007930  1.0  1.288
  Mo  Mo20  1  0.341850  0.595480  0.103530  1.0  1.2769
  Mo  Mo21  1  0.653100  0.657070  0.916570  1.0  1.2472
  Mo  Mo22  1  0.669390  0.726640  0.029700  1.0  1.2826
  Mo  Mo23  1  0.313600  0.430080  0.838960  1.0  1.2624
  Mo  Mo24  1  0.306950  0.615030  0.854430  1.0  1.27
  Mo  Mo25  1  0.671450  0.211280  0.492070  1.0  1.2879
  Mo  Mo26  1  0.658150  0.095480  0.396470  1.0  1.2782
  Mo  Mo27  1  0.346900  0.157070  0.583430  1.0  1.2497
  Mo  Mo28  1  0.330610  0.226640  0.470300  1.0  1.2815
  Mo  Mo29  1  0.686400  0.930080  0.661040  1.0  1.2622
  Mo  Mo30  1  0.693050  0.115030  0.645570  1.0  1.2741
  P  P31  1  0.811290  0.551980  0.854070  1.0  1.8019
  P  P32  1  0.187670  0.224520  0.824950  1.0  1.8437
  P  P33  1  0.851130  0.217860  0.121440  1.0  1.8075
  P  P34  1  0.781590  0.507850  0.039740  1.0  1.7811
  P  P35  1  0.188710  0.051980  0.645930  1.0  1.7995
  P  P36  1  0.812330  0.724520  0.675050  1.0  1.849
  P  P37  1  0.148870  0.717860  0.378560  1.0  1.8069
  P  P38  1  0.218410  0.007850  0.460260  1.0  1.7798
  P  P39  1  0.188710  0.448020  0.145930  1.0  1.7997
  P  P40  1  0.812330  0.775480  0.175050  1.0  1.8478
  P  P41  1  0.148870  0.782140  0.878560  1.0  1.8072
  P  P42  1  0.218410  0.492150  0.960260  1.0  1.7802
  P  P43  1  0.811290  0.948020  0.354070  1.0  1.8018
  P  P44  1  0.187670  0.275480  0.324950  1.0  1.8432
  P  P45  1  0.851130  0.282140  0.621440  1.0  1.8077
  P  P46  1  0.781590  0.992150  0.539740  1.0  1.7814
  H  H47  1  0.559800  0.315600  0.058400  1.0  0.4042
  H  H48  1  0.530600  0.529900  0.878300  1.0  0.4087
  H  H49  1  0.447200  0.338400  0.916400  1.0  0.4178
  H  H50  1  0.221700  0.122000  0.772200  1.0  0.3854
  H  H51  1  0.916400  0.101100  0.163500  1.0  0.4869
  H  H52  1  0.440200  0.815600  0.441600  1.0  0.4054
  H  H53  1  0.469400  0.029900  0.621700  1.0  0.408
  H  H54  1  0.552800  0.838400  0.583600  1.0  0.4166
  H  H55  1  0.778300  0.622000  0.727800  1.0  0.3849
  H  H56  1  0.083600  0.601100  0.336500  1.0  0.4889
  H  H57  1  0.440200  0.684400  0.941600  1.0  0.4037
  H  H58  1  0.469400  0.470100  0.121700  1.0  0.4078
  H  H59  1  0.552800  0.661600  0.083600  1.0  0.416
  H  H60  1  0.778300  0.878000  0.227800  1.0  0.3838
  H  H61  1  0.083600  0.898900  0.836500  1.0  0.4906
  H  H62  1  0.559800  0.184400  0.558400  1.0  0.4028
  H  H63  1  0.530600  0.970100  0.378300  1.0  0.4086
  H  H64  1  0.447200  0.161600  0.416400  1.0  0.4176
  H  H65  1  0.221700  0.378000  0.272200  1.0  0.3844
  H  H66  1  0.916400  0.398900  0.663500  1.0  0.4886
  O  O67  1  0.763000  0.323200  0.946150  1.0  -0.6886
  O  O68  1  0.578700  0.390900  0.954950  1.0  -0.8598
  O  O69  1  0.616400  0.291300  0.072010  1.0  -0.8138
  O  O70  1  0.782600  0.211900  0.052100  1.0  -0.7416
  O  O71  1  0.742600  0.411100  0.058290  1.0  -0.8645
  O  O72  1  0.758100  0.456400  0.853120  1.0  -0.7607
  O  O73  1  0.582500  0.535100  0.867360  1.0  -0.8124
  O  O74  1  0.734800  0.521300  0.965850  1.0  -0.855
  O  O75  1  0.746700  0.636300  0.860820  1.0  -0.7442
  O  O76  1  0.424600  0.362900  0.024500  1.0  -0.8555
  O  O77  1  0.240700  0.278700  0.021360  1.0  -0.6803
  O  O78  1  0.391600  0.316400  0.895960  1.0  -0.8593
  O  O79  1  0.213500  0.219000  0.898300  1.0  -0.7367
  O  O80  1  0.740000  0.588700  0.073480  1.0  -0.8757
  O  O81  1  0.206900  0.328800  0.804960  1.0  -0.7762
  O  O82  1  0.792600  0.478600  0.186400  1.0  -0.8034
  O  O83  1  0.595700  0.480500  0.104860  1.0  -0.8719
  O  O84  1  0.809900  0.289900  0.160930  1.0  -0.8364
  O  O85  1  0.830500  0.558800  0.787510  1.0  -0.6745
  O  O86  1  0.909300  0.554400  0.904140  1.0  -0.7996
  O  O87  1  0.082900  0.201600  0.793000  1.0  -0.7651
  O  O88  1  0.254800  0.155100  0.803900  1.0  -0.5768
  O  O89  1  0.951500  0.253800  0.121700  1.0  -0.7981
  O  O90  1  0.857600  0.119900  0.152700  1.0  -0.5442
  O  O91  1  0.889200  0.507600  0.059670  1.0  -0.7679
  O  O92  1  0.237000  0.823200  0.553850  1.0  -0.6957
  O  O93  1  0.421300  0.890900  0.545050  1.0  -0.8614
  O  O94  1  0.383600  0.791300  0.427990  1.0  -0.8117
  O  O95  1  0.217400  0.711900  0.447900  1.0  -0.7442
  O  O96  1  0.257400  0.911100  0.441710  1.0  -0.8642
  O  O97  1  0.241900  0.956400  0.646880  1.0  -0.7613
  O  O98  1  0.417500  0.035100  0.632640  1.0  -0.807
  O  O99  1  0.265200  0.021300  0.534150  1.0  -0.8556
  O  O100  1  0.253300  0.136300  0.639180  1.0  -0.7432
  O  O101  1  0.575400  0.862900  0.475500  1.0  -0.8543
  O  O102  1  0.759300  0.778700  0.478640  1.0  -0.6801
  O  O103  1  0.608400  0.816400  0.604040  1.0  -0.8614
  O  O104  1  0.786500  0.719000  0.601700  1.0  -0.7359
  O  O105  1  0.260000  0.088700  0.426520  1.0  -0.8753
  O  O106  1  0.793100  0.828800  0.695040  1.0  -0.7761
  O  O107  1  0.207400  0.978600  0.313600  1.0  -0.8161
  O  O108  1  0.404300  0.980500  0.395140  1.0  -0.873
  O  O109  1  0.190100  0.789900  0.339070  1.0  -0.8353
  O  O110  1  0.169500  0.058800  0.712490  1.0  -0.6751
  O  O111  1  0.090700  0.054400  0.595860  1.0  -0.7942
  O  O112  1  0.917100  0.701600  0.707000  1.0  -0.7683
  O  O113  1  0.745200  0.655100  0.696100  1.0  -0.578
  O  O114  1  0.048500  0.753800  0.378300  1.0  -0.7943
  O  O115  1  0.142400  0.619900  0.347300  1.0  -0.5408
  O  O116  1  0.110800  0.007600  0.440330  1.0  -0.7736
  O  O117  1  0.237000  0.676800  0.053850  1.0  -0.6921
  O  O118  1  0.421300  0.609100  0.045050  1.0  -0.8623
  O  O119  1  0.383600  0.708700  0.927990  1.0  -0.8084
  O  O120  1  0.217400  0.788100  0.947900  1.0  -0.7416
  O  O121  1  0.257400  0.588900  0.941710  1.0  -0.8647
  O  O122  1  0.241900  0.543600  0.146880  1.0  -0.7592
  O  O123  1  0.417500  0.464900  0.132640  1.0  -0.8065
  O  O124  1  0.265200  0.478700  0.034150  1.0  -0.8552
  O  O125  1  0.253300  0.363700  0.139180  1.0  -0.7431
  O  O126  1  0.575400  0.637100  0.975500  1.0  -0.8541
  O  O127  1  0.759300  0.721300  0.978640  1.0  -0.6781
  O  O128  1  0.608400  0.683600  0.104040  1.0  -0.8609
  O  O129  1  0.786500  0.781000  0.101700  1.0  -0.7377
  O  O130  1  0.260000  0.411300  0.926520  1.0  -0.875
  O  O131  1  0.793100  0.671200  0.195040  1.0  -0.777
  O  O132  1  0.207400  0.521400  0.813600  1.0  -0.8166
  O  O133  1  0.404300  0.519500  0.895140  1.0  -0.8728
  O  O134  1  0.190100  0.710100  0.839070  1.0  -0.836
  O  O135  1  0.169500  0.441200  0.212490  1.0  -0.6761
  O  O136  1  0.090700  0.445600  0.095860  1.0  -0.7942
  O  O137  1  0.917100  0.798400  0.207000  1.0  -0.7682
  O  O138  1  0.745200  0.844900  0.196100  1.0  -0.5788
  O  O139  1  0.048500  0.746200  0.878300  1.0  -0.7942
  O  O140  1  0.142400  0.880100  0.847300  1.0  -0.5386
  O  O141  1  0.110800  0.492400  0.940330  1.0  -0.7731
  O  O142  1  0.763000  0.176800  0.446150  1.0  -0.6939
  O  O143  1  0.578700  0.109100  0.454950  1.0  -0.86
  O  O144  1  0.616400  0.208700  0.572010  1.0  -0.8119
  O  O145  1  0.782600  0.288100  0.552100  1.0  -0.7415
  O  O146  1  0.742600  0.088900  0.558290  1.0  -0.8648
  O  O147  1  0.758100  0.043600  0.353120  1.0  -0.7602
  O  O148  1  0.582500  0.964900  0.367360  1.0  -0.8121
  O  O149  1  0.734800  0.978700  0.465850  1.0  -0.8545
  O  O150  1  0.746700  0.863700  0.360820  1.0  -0.7421
  O  O151  1  0.424600  0.137100  0.524500  1.0  -0.8558
  O  O152  1  0.240700  0.221300  0.521360  1.0  -0.6757
  O  O153  1  0.391600  0.183600  0.395960  1.0  -0.8584
  O  O154  1  0.213500  0.281000  0.398300  1.0  -0.7383
  O  O155  1  0.740000  0.911300  0.573480  1.0  -0.8755
  O  O156  1  0.206900  0.171200  0.304960  1.0  -0.7765
  O  O157  1  0.792600  0.021400  0.686400  1.0  -0.8034
  O  O158  1  0.595700  0.019500  0.604860  1.0  -0.8717
  O  O159  1  0.809900  0.210100  0.660930  1.0  -0.8364
  O  O160  1  0.830500  0.941200  0.287510  1.0  -0.6744
  O  O161  1  0.909300  0.945600  0.404140  1.0  -0.7996
  O  O162  1  0.082900  0.298400  0.293000  1.0  -0.7653
  O  O163  1  0.254800  0.344900  0.303900  1.0  -0.5778
  O  O164  1  0.951500  0.246200  0.621700  1.0  -0.7976
  O  O165  1  0.857600  0.380100  0.652700  1.0  -0.5415
  O  O166  1  0.889200  0.992400  0.559670  1.0  -0.7679
