# generated using pymatgen
data_Cd3H14C20(N3O2)2
_symmetry_space_group_name_H-M   'P 1'
_cell_length_a   16.86000000
_cell_length_b   24.51300000
_cell_length_c   11.92000000
_cell_angle_alpha   90.00000000
_cell_angle_beta   109.39200000
_cell_angle_gamma   90.00000000
_symmetry_Int_Tables_number   1
_chemical_formula_structural   Cd3H14C20(N3O2)2
_chemical_formula_sum   'Cd12 H56 C80 N24 O16'
_cell_volume   4646.92716261
_cell_formula_units_Z   4
loop_
 _symmetry_equiv_pos_site_id
 _symmetry_equiv_pos_as_xyz
  1  'x, y, z'
loop_
 _atom_site_type_symbol
 _atom_site_label
 _atom_site_symmetry_multiplicity
 _atom_site_fract_x
 _atom_site_fract_y
 _atom_site_fract_z
 _atom_site_occupancy
 _atom_site_charge
  Cd  Cd1  1  0.052520  0.136870  0.600160  1.0  0.8079
  Cd  Cd2  1  0.006620  0.120040  0.866330  1.0  0.8425
  Cd  Cd3  1  0.933770  0.125510  0.290910  1.0  0.9116
  Cd  Cd4  1  0.947480  0.636870  0.899840  1.0  0.8076
  Cd  Cd5  1  0.993380  0.620040  0.633670  1.0  0.8411
  Cd  Cd6  1  0.066230  0.625510  0.209090  1.0  0.909
  Cd  Cd7  1  0.947480  0.863130  0.399840  1.0  0.8079
  Cd  Cd8  1  0.993380  0.879960  0.133670  1.0  0.8391
  Cd  Cd9  1  0.066230  0.874490  0.709090  1.0  0.9097
  Cd  Cd10  1  0.052520  0.363130  0.100160  1.0  0.8086
  Cd  Cd11  1  0.006620  0.379960  0.366330  1.0  0.8393
  Cd  Cd12  1  0.933770  0.374490  0.790910  1.0  0.9124
  H  H13  1  0.178500  0.230100  0.983800  1.0  0.0724
  H  H14  1  0.289400  0.263900  0.141700  1.0  0.0768
  H  H15  1  0.451800  0.195900  0.003800  1.0  0.085
  H  H16  1  0.341900  0.167800  0.841200  1.0  0.0793
  H  H17  1  0.437000  0.274600  0.247300  1.0  0.0695
  H  H18  1  0.548800  0.227200  0.158000  1.0  0.0716
  H  H19  1  0.697300  0.235600  0.272800  1.0  0.0801
  H  H20  1  0.805600  0.272500  0.427000  1.0  0.0758
  H  H21  1  0.531700  0.315400  0.386700  1.0  0.0839
  H  H22  1  0.639400  0.346800  0.547600  1.0  0.0876
  H  H23  1  0.039500  0.979200  0.876600  1.0  0.0769
  H  H24  1  0.094700  0.995100  0.589100  1.0  0.0748
  H  H25  1  0.926400  0.264500  0.251000  1.0  0.0446
  H  H26  1  0.037800  0.283500  0.588300  1.0  0.0524
  H  H27  1  0.821500  0.730100  0.516200  1.0  0.0724
  H  H28  1  0.710600  0.763900  0.358300  1.0  0.0772
  H  H29  1  0.548200  0.695900  0.496200  1.0  0.0852
  H  H30  1  0.658100  0.667800  0.658800  1.0  0.0798
  H  H31  1  0.563000  0.774600  0.252700  1.0  0.0696
  H  H32  1  0.451200  0.727200  0.342000  1.0  0.0715
  H  H33  1  0.302700  0.735600  0.227200  1.0  0.0788
  H  H34  1  0.194400  0.772500  0.073000  1.0  0.0761
  H  H35  1  0.468300  0.815400  0.113300  1.0  0.0826
  H  H36  1  0.360600  0.846800  0.952400  1.0  0.087
  H  H37  1  0.960500  0.479200  0.623400  1.0  0.0752
  H  H38  1  0.905300  0.495100  0.910900  1.0  0.0773
  H  H39  1  0.073600  0.764500  0.249000  1.0  0.0443
  H  H40  1  0.962200  0.783500  0.911700  1.0  0.0514
  H  H41  1  0.821500  0.769900  0.016200  1.0  0.0728
  H  H42  1  0.710600  0.736100  0.858300  1.0  0.0771
  H  H43  1  0.548200  0.804100  0.996200  1.0  0.085
  H  H44  1  0.658100  0.832200  0.158800  1.0  0.0798
  H  H45  1  0.563000  0.725400  0.752700  1.0  0.0692
  H  H46  1  0.451200  0.772800  0.842000  1.0  0.0714
  H  H47  1  0.302700  0.764400  0.727200  1.0  0.0784
  H  H48  1  0.194400  0.727500  0.573000  1.0  0.0759
  H  H49  1  0.468300  0.684600  0.613300  1.0  0.0834
  H  H50  1  0.360600  0.653200  0.452400  1.0  0.0868
  H  H51  1  0.960500  0.020800  0.123400  1.0  0.075
  H  H52  1  0.905300  0.004900  0.410900  1.0  0.0753
  H  H53  1  0.073600  0.735500  0.749000  1.0  0.0447
  H  H54  1  0.962200  0.716500  0.411700  1.0  0.051
  H  H55  1  0.178500  0.269900  0.483800  1.0  0.0729
  H  H56  1  0.289400  0.236100  0.641700  1.0  0.0767
  H  H57  1  0.451800  0.304100  0.503800  1.0  0.0848
  H  H58  1  0.341900  0.332200  0.341200  1.0  0.0794
  H  H59  1  0.437000  0.225400  0.747300  1.0  0.0697
  H  H60  1  0.548800  0.272800  0.658000  1.0  0.0717
  H  H61  1  0.697300  0.264400  0.772800  1.0  0.0801
  H  H62  1  0.805600  0.227500  0.927000  1.0  0.0757
  H  H63  1  0.531700  0.184600  0.886700  1.0  0.0832
  H  H64  1  0.639400  0.153200  0.047600  1.0  0.0877
  H  H65  1  0.039500  0.520800  0.376600  1.0  0.0773
  H  H66  1  0.094700  0.504900  0.089100  1.0  0.0767
  H  H67  1  0.926400  0.235500  0.751000  1.0  0.0447
  H  H68  1  0.037800  0.216500  0.088300  1.0  0.0519
  C  C69  1  0.178300  0.174310  0.793500  1.0  0.6905
  C  C70  1  0.249100  0.195000  0.897500  1.0  -0.1495
  C  C71  1  0.233600  0.223810  0.986900  1.0  -0.0799
  C  C72  1  0.300300  0.243690  0.082400  1.0  -0.1225
  C  C73  1  0.382600  0.233590  0.089300  1.0  0.0103
  C  C74  1  0.396900  0.203930  0.999300  1.0  -0.1559
  C  C75  1  0.331000  0.186070  0.903000  1.0  -0.0634
  C  C76  1  0.452100  0.254590  0.191300  1.0  -0.1319
  C  C77  1  0.533200  0.248210  0.212200  1.0  -0.1479
  C  C78  1  0.601900  0.271130  0.313100  1.0  0.0519
  C  C79  1  0.685300  0.258770  0.326900  1.0  -0.124
  C  C80  1  0.750300  0.280540  0.419900  1.0  -0.0817
  C  C81  1  0.586800  0.305570  0.395600  1.0  -0.1444
  C  C82  1  0.803600  0.338270  0.603400  1.0  0.6718
  C  C83  1  0.733800  0.314140  0.502400  1.0  -0.1587
  C  C84  1  0.651400  0.325510  0.490700  1.0  -0.0772
  C  C85  1  0.050300  0.994300  0.811500  1.0  0.2609
  C  C86  1  0.080200  0.003030  0.656100  1.0  0.236
  C  C87  1  0.952500  0.257380  0.331500  1.0  0.2105
  C  C88  1  0.012900  0.267580  0.514000  1.0  0.2243
  C  C89  1  0.821700  0.674310  0.706500  1.0  0.6908
  C  C90  1  0.750900  0.695000  0.602500  1.0  -0.1495
  C  C91  1  0.766400  0.723810  0.513100  1.0  -0.0785
  C  C92  1  0.699700  0.743690  0.417600  1.0  -0.1226
  C  C93  1  0.617400  0.733590  0.410700  1.0  0.0091
  C  C94  1  0.603100  0.703930  0.500700  1.0  -0.1562
  C  C95  1  0.669000  0.686070  0.597000  1.0  -0.0631
  C  C96  1  0.547900  0.754590  0.308700  1.0  -0.1321
  C  C97  1  0.466800  0.748210  0.287800  1.0  -0.1464
  C  C98  1  0.398100  0.771130  0.186900  1.0  0.0504
  C  C99  1  0.314700  0.758770  0.173100  1.0  -0.1231
  C  C100  1  0.249700  0.780540  0.080100  1.0  -0.0812
  C  C101  1  0.413200  0.805570  0.104400  1.0  -0.1308
  C  C102  1  0.196400  0.838270  0.896600  1.0  0.6719
  C  C103  1  0.266200  0.814140  0.997600  1.0  -0.1584
  C  C104  1  0.348600  0.825510  0.009300  1.0  -0.0707
  C  C105  1  0.949700  0.494300  0.688500  1.0  0.2612
  C  C106  1  0.919800  0.503030  0.843900  1.0  0.2353
  C  C107  1  0.047500  0.757380  0.168500  1.0  0.2104
  C  C108  1  0.987100  0.767580  0.986000  1.0  0.2244
  C  C109  1  0.821700  0.825690  0.206500  1.0  0.691
  C  C110  1  0.750900  0.805000  0.102500  1.0  -0.1491
  C  C111  1  0.766400  0.776190  0.013100  1.0  -0.0782
  C  C112  1  0.699700  0.756310  0.917600  1.0  -0.1231
  C  C113  1  0.617400  0.766410  0.910700  1.0  0.0092
  C  C114  1  0.603100  0.796070  0.000700  1.0  -0.1566
  C  C115  1  0.669000  0.813930  0.097000  1.0  -0.0641
  C  C116  1  0.547900  0.745410  0.808700  1.0  -0.1332
  C  C117  1  0.466800  0.751790  0.787800  1.0  -0.1458
  C  C118  1  0.398100  0.728870  0.686900  1.0  0.0507
  C  C119  1  0.314700  0.741230  0.673100  1.0  -0.1236
  C  C120  1  0.249700  0.719460  0.580100  1.0  -0.0817
  C  C121  1  0.413200  0.694430  0.604400  1.0  -0.1427
  C  C122  1  0.196400  0.661730  0.396600  1.0  0.6719
  C  C123  1  0.266200  0.685860  0.497600  1.0  -0.1588
  C  C124  1  0.348600  0.674490  0.509300  1.0  -0.0768
  C  C125  1  0.949700  0.005700  0.188500  1.0  0.2613
  C  C126  1  0.919800  0.996970  0.343900  1.0  0.2353
  C  C127  1  0.047500  0.742620  0.668500  1.0  0.2103
  C  C128  1  0.987100  0.732420  0.486000  1.0  0.2244
  C  C129  1  0.178300  0.325690  0.293500  1.0  0.6906
  C  C130  1  0.249100  0.305000  0.397500  1.0  -0.1484
  C  C131  1  0.233600  0.276190  0.486900  1.0  -0.0791
  C  C132  1  0.300300  0.256310  0.582400  1.0  -0.1231
  C  C133  1  0.382600  0.266410  0.589300  1.0  0.0103
  C  C134  1  0.396900  0.296070  0.499300  1.0  -0.1556
  C  C135  1  0.331000  0.313930  0.403000  1.0  -0.0629
  C  C136  1  0.452100  0.245410  0.691300  1.0  -0.1321
  C  C137  1  0.533200  0.251790  0.712200  1.0  -0.1466
  C  C138  1  0.601900  0.228870  0.813100  1.0  0.0523
  C  C139  1  0.685300  0.241230  0.826900  1.0  -0.1237
  C  C140  1  0.750300  0.219460  0.919900  1.0  -0.0821
  C  C141  1  0.586800  0.194430  0.895600  1.0  -0.1329
  C  C142  1  0.803600  0.161730  0.103400  1.0  0.6716
  C  C143  1  0.733800  0.185860  0.002400  1.0  -0.1588
  C  C144  1  0.651400  0.174490  0.990700  1.0  -0.0699
  C  C145  1  0.050300  0.505700  0.311500  1.0  0.2607
  C  C146  1  0.080200  0.496970  0.156100  1.0  0.2365
  C  C147  1  0.952500  0.242620  0.831500  1.0  0.2101
  C  C148  1  0.012900  0.232420  0.014000  1.0  0.2245
  N  N149  1  0.065550  0.052340  0.685700  1.0  -0.2371
  N  N150  1  0.045550  0.047000  0.788000  1.0  -0.2851
  N  N151  1  0.072030  0.964930  0.732500  1.0  -0.4275
  N  N152  1  0.964960  0.208220  0.376100  1.0  -0.2666
  N  N153  1  0.005250  0.214950  0.497100  1.0  -0.2563
  N  N154  1  0.980980  0.296500  0.413100  1.0  -0.4295
  N  N155  1  0.934450  0.552340  0.814300  1.0  -0.2388
  N  N156  1  0.954450  0.547000  0.712000  1.0  -0.2864
  N  N157  1  0.927970  0.464930  0.767500  1.0  -0.4275
  N  N158  1  0.035040  0.708220  0.123900  1.0  -0.2664
  N  N159  1  0.994750  0.714950  0.002900  1.0  -0.2558
  N  N160  1  0.019020  0.796500  0.086900  1.0  -0.4301
  N  N161  1  0.934450  0.947660  0.314300  1.0  -0.2372
  N  N162  1  0.954450  0.953000  0.212000  1.0  -0.2857
  N  N163  1  0.927970  0.035070  0.267500  1.0  -0.4287
  N  N164  1  0.035040  0.791780  0.623900  1.0  -0.2671
  N  N165  1  0.994750  0.785050  0.502900  1.0  -0.2582
  N  N166  1  0.019020  0.703500  0.586900  1.0  -0.4293
  N  N167  1  0.065550  0.447660  0.185700  1.0  -0.2365
  N  N168  1  0.045550  0.453000  0.288000  1.0  -0.2855
  N  N169  1  0.072030  0.535070  0.232500  1.0  -0.428
  N  N170  1  0.964960  0.291780  0.876100  1.0  -0.2675
  N  N171  1  0.005250  0.285050  0.997100  1.0  -0.2585
  N  N172  1  0.980980  0.203500  0.913100  1.0  -0.4296
  O  O173  1  0.789880  0.351690  0.695500  1.0  -0.6307
  O  O174  1  0.874950  0.343990  0.592300  1.0  -0.6327
  O  O175  1  0.105500  0.171580  0.800700  1.0  -0.7072
  O  O176  1  0.192790  0.160850  0.700900  1.0  -0.642
  O  O177  1  0.210120  0.851690  0.804500  1.0  -0.6318
  O  O178  1  0.125050  0.843990  0.907700  1.0  -0.6343
  O  O179  1  0.894500  0.671580  0.699300  1.0  -0.7078
  O  O180  1  0.807210  0.660850  0.799100  1.0  -0.6428
  O  O181  1  0.210120  0.648310  0.304500  1.0  -0.6314
  O  O182  1  0.125050  0.656010  0.407700  1.0  -0.6333
  O  O183  1  0.894500  0.828420  0.199300  1.0  -0.7071
  O  O184  1  0.807210  0.839150  0.299100  1.0  -0.6439
  O  O185  1  0.789880  0.148310  0.195500  1.0  -0.6292
  O  O186  1  0.874950  0.156010  0.092300  1.0  -0.6333
  O  O187  1  0.105500  0.328420  0.300700  1.0  -0.7068
  O  O188  1  0.192790  0.339150  0.200900  1.0  -0.6428
