# generated using pymatgen
data_CuH4C2N4O
_symmetry_space_group_name_H-M   'P 1'
_cell_length_a   11.92860000
_cell_length_b   11.92860000
_cell_length_c   10.46900000
_cell_angle_alpha   90.00000000
_cell_angle_beta   90.00000000
_cell_angle_gamma   120.00000000
_symmetry_Int_Tables_number   1
_chemical_formula_structural   CuH4C2N4O
_chemical_formula_sum   'Cu6 H24 C12 N24 O6'
_cell_volume   1290.07447614
_cell_formula_units_Z   6
loop_
 _symmetry_equiv_pos_site_id
 _symmetry_equiv_pos_as_xyz
  1  'x, y, z'
loop_
 _atom_site_type_symbol
 _atom_site_label
 _atom_site_symmetry_multiplicity
 _atom_site_fract_x
 _atom_site_fract_y
 _atom_site_fract_z
 _atom_site_occupancy
 _atom_site_charge
  Cu  Cu1  1  0.437650  0.497820  0.159820  1.0  0.669
  Cu  Cu2  1  0.502180  0.939830  0.826490  1.0  0.6699
  Cu  Cu3  1  0.060170  0.562350  0.493150  1.0  0.6678
  Cu  Cu4  1  0.497820  0.437650  0.840180  1.0  0.6677
  Cu  Cu5  1  0.939830  0.502180  0.173510  1.0  0.6699
  Cu  Cu6  1  0.562350  0.060170  0.506850  1.0  0.6694
  H  H7  1  0.185700  0.499500  0.063600  1.0  0.0806
  H  H8  1  0.299800  0.534400  0.524900  1.0  0.3235
  H  H9  1  0.399000  0.530700  0.441400  1.0  0.3259
  H  H10  1  0.453900  0.342200  0.293800  1.0  0.4082
  H  H11  1  0.500500  0.686200  0.730270  1.0  0.0803
  H  H12  1  0.465600  0.765400  0.191570  1.0  0.3243
  H  H13  1  0.469300  0.868300  0.108070  1.0  0.326
  H  H14  1  0.657800  0.111700  0.960470  1.0  0.4098
  H  H15  1  0.313800  0.814300  0.396930  1.0  0.08
  H  H16  1  0.234600  0.700200  0.858230  1.0  0.3231
  H  H17  1  0.131700  0.601000  0.774730  1.0  0.3275
  H  H18  1  0.888300  0.546100  0.627130  1.0  0.4108
  H  H19  1  0.499500  0.185700  0.936400  1.0  0.0812
  H  H20  1  0.534400  0.299800  0.475100  1.0  0.3221
  H  H21  1  0.530700  0.399000  0.558600  1.0  0.3283
  H  H22  1  0.342200  0.453900  0.706200  1.0  0.4114
  H  H23  1  0.686200  0.500500  0.269730  1.0  0.0806
  H  H24  1  0.765400  0.465600  0.808430  1.0  0.3223
  H  H25  1  0.868300  0.469300  0.891930  1.0  0.326
  H  H26  1  0.111700  0.657800  0.039530  1.0  0.4086
  H  H27  1  0.814300  0.313800  0.603070  1.0  0.0807
  H  H28  1  0.700200  0.234600  0.141770  1.0  0.3229
  H  H29  1  0.601000  0.131700  0.225270  1.0  0.3266
  H  H30  1  0.546100  0.888300  0.372870  1.0  0.4073
  C  C31  1  0.260300  0.530100  0.345100  1.0  0.55
  C  C32  1  0.192000  0.508700  0.151900  1.0  0.1914
  C  C33  1  0.469900  0.730200  0.011770  1.0  0.5496
  C  C34  1  0.491300  0.683300  0.818570  1.0  0.1919
  C  C35  1  0.269800  0.739700  0.678430  1.0  0.5499
  C  C36  1  0.316700  0.808000  0.485230  1.0  0.1931
  C  C37  1  0.530100  0.260300  0.654900  1.0  0.5501
  C  C38  1  0.508700  0.192000  0.848100  1.0  0.1965
  C  C39  1  0.730200  0.469900  0.988230  1.0  0.5507
  C  C40  1  0.683300  0.491300  0.181430  1.0  0.1962
  C  C41  1  0.739700  0.269800  0.321570  1.0  0.5499
  C  C42  1  0.808000  0.316700  0.514770  1.0  0.1968
  N  N43  1  0.106440  0.517320  0.224910  1.0  -0.2721
  N  N44  1  0.150510  0.531820  0.349310  1.0  -0.3532
  N  N45  1  0.290020  0.514900  0.222150  1.0  -0.4551
  N  N46  1  0.327900  0.532000  0.449900  1.0  -0.7335
  N  N47  1  0.482680  0.589120  0.891580  1.0  -0.2712
  N  N48  1  0.468180  0.618690  0.015980  1.0  -0.3503
  N  N49  1  0.485100  0.775120  0.888820  1.0  -0.4515
  N  N50  1  0.468000  0.795900  0.116570  1.0  -0.7362
  N  N51  1  0.410880  0.893560  0.558240  1.0  -0.2703
  N  N52  1  0.381310  0.849490  0.682640  1.0  -0.3508
  N  N53  1  0.224880  0.709980  0.555480  1.0  -0.4548
  N  N54  1  0.204100  0.672100  0.783230  1.0  -0.7333
  N  N55  1  0.517320  0.106440  0.775090  1.0  -0.2707
  N  N56  1  0.531820  0.150510  0.650690  1.0  -0.3501
  N  N57  1  0.514900  0.290020  0.777850  1.0  -0.4525
  N  N58  1  0.532000  0.327900  0.550100  1.0  -0.7315
  N  N59  1  0.589120  0.482680  0.108420  1.0  -0.2719
  N  N60  1  0.618690  0.468180  0.984020  1.0  -0.3533
  N  N61  1  0.775120  0.485100  0.111180  1.0  -0.4545
  N  N62  1  0.795900  0.468000  0.883430  1.0  -0.7345
  N  N63  1  0.893560  0.410880  0.441760  1.0  -0.2712
  N  N64  1  0.849490  0.381310  0.317360  1.0  -0.3504
  N  N65  1  0.709980  0.224880  0.444520  1.0  -0.4515
  N  N66  1  0.672100  0.204100  0.216770  1.0  -0.7346
  O  O67  1  0.401700  0.367730  0.298600  1.0  -0.7417
  O  O68  1  0.632270  0.033970  0.965270  1.0  -0.7456
  O  O69  1  0.966030  0.598300  0.631930  1.0  -0.7439
  O  O70  1  0.367730  0.401700  0.701400  1.0  -0.7436
  O  O71  1  0.033970  0.632270  0.034730  1.0  -0.7415
  O  O72  1  0.598300  0.966030  0.368070  1.0  -0.7426
