# generated using pymatgen
data_CaH20(C17O4)2
_symmetry_space_group_name_H-M   'P 1'
_cell_length_a   5.18120000
_cell_length_b   10.74200000
_cell_length_c   15.12240000
_cell_angle_alpha   82.46600000
_cell_angle_beta   84.92800000
_cell_angle_gamma   82.69100000
_symmetry_Int_Tables_number   1
_chemical_formula_structural   CaH20(C17O4)2
_chemical_formula_sum   'Ca1 H20 C34 O8'
_cell_volume   825.40861600
_cell_formula_units_Z   1
loop_
 _symmetry_equiv_pos_site_id
 _symmetry_equiv_pos_as_xyz
  1  'x, y, z'
loop_
 _atom_site_type_symbol
 _atom_site_label
 _atom_site_symmetry_multiplicity
 _atom_site_fract_x
 _atom_site_fract_y
 _atom_site_fract_z
 _atom_site_occupancy
 _atom_site_charge
  Ca  Ca1  1  0.000000  0.000000  0.000000  1.0  1.5204
  H  H2  1  0.971800  0.719300  0.475500  1.0  0.1049
  H  H3  1  0.508500  0.258900  0.606800  1.0  0.1159
  H  H4  1  0.663600  0.153500  0.740200  1.0  0.1039
  H  H5  1  0.033700  0.317800  0.879300  1.0  0.1104
  H  H6  1  0.894600  0.433500  0.746500  1.0  0.0959
  H  H7  1  0.513400  0.532100  0.655800  1.0  0.0932
  H  H8  1  0.623000  0.639500  0.769400  1.0  0.1051
  H  H9  1  0.974500  0.891000  0.733800  1.0  0.1045
  H  H10  1  0.871000  0.784700  0.619100  1.0  0.11
  H  H11  1  0.605400  0.835600  0.916200  1.0  0.3909
  H  H12  1  0.028200  0.280700  0.524500  1.0  0.1051
  H  H13  1  0.491500  0.741100  0.393200  1.0  0.1153
  H  H14  1  0.336400  0.846500  0.259800  1.0  0.1052
  H  H15  1  0.966300  0.682200  0.120700  1.0  0.1107
  H  H16  1  0.105400  0.566500  0.253500  1.0  0.0962
  H  H17  1  0.486600  0.467900  0.344200  1.0  0.0932
  H  H18  1  0.377000  0.360500  0.230600  1.0  0.1048
  H  H19  1  0.025500  0.109000  0.266200  1.0  0.1044
  H  H20  1  0.129000  0.215300  0.380900  1.0  0.1098
  H  H21  1  0.394600  0.164400  0.083800  1.0  0.3905
  C  C22  1  0.984200  0.629700  0.485410  1.0  -0.0802
  C  C23  1  0.085700  0.567300  0.564240  1.0  -0.0304
  C  C24  1  0.099700  0.434800  0.579330  1.0  -0.0382
  C  C25  1  0.189700  0.359800  0.663710  1.0  0.0499
  C  C26  1  0.416000  0.273600  0.662230  1.0  -0.1
  C  C27  1  0.506000  0.209300  0.741460  1.0  -0.041
  C  C28  1  0.133700  0.308300  0.824340  1.0  -0.0311
  C  C29  1  0.049600  0.375800  0.745070  1.0  -0.1195
  C  C30  1  0.366000  0.226400  0.822810  1.0  -0.1168
  C  C31  1  0.467400  0.160100  0.908910  1.0  0.671
  C  C32  1  0.173400  0.643100  0.630300  1.0  0.011
  C  C33  1  0.401600  0.603500  0.672800  1.0  -0.1277
  C  C34  1  0.467600  0.667700  0.740000  1.0  -0.0565
  C  C35  1  0.305400  0.773800  0.764330  1.0  -0.1477
  C  C36  1  0.082800  0.817500  0.718690  1.0  -0.0263
  C  C37  1  0.019800  0.753400  0.651310  1.0  -0.1086
  C  C38  1  0.359100  0.835400  0.842310  1.0  0.6505
  C  C39  1  0.015800  0.370300  0.514590  1.0  -0.0795
  C  C40  1  0.914300  0.432700  0.435760  1.0  -0.0319
  C  C41  1  0.900300  0.565200  0.420670  1.0  -0.0379
  C  C42  1  0.810300  0.640200  0.336290  1.0  0.049
  C  C43  1  0.584000  0.726400  0.337770  1.0  -0.0995
  C  C44  1  0.494000  0.790700  0.258540  1.0  -0.0402
  C  C45  1  0.866300  0.691700  0.175660  1.0  -0.0312
  C  C46  1  0.950400  0.624200  0.254930  1.0  -0.1207
  C  C47  1  0.634000  0.773600  0.177190  1.0  -0.1171
  C  C48  1  0.532600  0.839900  0.091090  1.0  0.6714
  C  C49  1  0.826600  0.356900  0.369700  1.0  0.0113
  C  C50  1  0.598400  0.396500  0.327200  1.0  -0.129
  C  C51  1  0.532400  0.332300  0.260000  1.0  -0.0563
  C  C52  1  0.694600  0.226200  0.235670  1.0  -0.1481
  C  C53  1  0.917200  0.182500  0.281310  1.0  -0.028
  C  C54  1  0.980200  0.246600  0.348690  1.0  -0.1105
  C  C55  1  0.640900  0.164600  0.157690  1.0  0.6495
  O  O56  1  0.300500  0.148120  0.976720  1.0  -0.6301
  O  O57  1  0.703700  0.123300  0.910430  1.0  -0.6988
  O  O58  1  0.198400  0.914300  0.874530  1.0  -0.6135
  O  O59  1  0.587200  0.797400  0.872510  1.0  -0.5069
  O  O60  1  0.699500  0.851880  0.023280  1.0  -0.6301
  O  O61  1  0.296300  0.876700  0.089570  1.0  -0.7006
  O  O62  1  0.801600  0.085700  0.125470  1.0  -0.6133
  O  O63  1  0.412800  0.202600  0.127490  1.0  -0.5068
