# generated using pymatgen
data_CuH7C7N4O
_symmetry_space_group_name_H-M   'P 1'
_cell_length_a   6.74180000
_cell_length_b   12.14300000
_cell_length_c   13.04000000
_cell_angle_alpha   90.00000000
_cell_angle_beta   90.00000000
_cell_angle_gamma   90.00000000
_symmetry_Int_Tables_number   1
_chemical_formula_structural   CuH7C7N4O
_chemical_formula_sum   'Cu4 H28 C28 N16 O4'
_cell_volume   1067.52843330
_cell_formula_units_Z   4
loop_
 _symmetry_equiv_pos_site_id
 _symmetry_equiv_pos_as_xyz
  1  'x, y, z'
loop_
 _atom_site_type_symbol
 _atom_site_label
 _atom_site_symmetry_multiplicity
 _atom_site_fract_x
 _atom_site_fract_y
 _atom_site_fract_z
 _atom_site_occupancy
 _atom_site_charge
  Cu  Cu1  1  0.332650  0.761420  0.501200  1.0  0.8201
  Cu  Cu2  1  0.832650  0.738580  0.498800  1.0  0.8193
  Cu  Cu3  1  0.167350  0.238580  0.001200  1.0  0.8192
  Cu  Cu4  1  0.667350  0.261420  0.998800  1.0  0.82
  H  H5  1  0.543400  0.757300  0.959100  1.0  0.089
  H  H6  1  0.539700  0.670300  0.119300  1.0  0.0741
  H  H7  1  0.593700  0.485200  0.127700  1.0  0.0248
  H  H8  1  0.619800  0.461800  0.831200  1.0  0.0266
  H  H9  1  0.867500  0.676100  0.741100  1.0  0.0905
  H  H10  1  0.287200  0.680800  0.739400  1.0  0.0546
  H  H11  1  0.571000  0.690000  0.391000  1.0  0.4283
  H  H12  1  0.043400  0.742700  0.040900  1.0  0.0887
  H  H13  1  0.039700  0.829700  0.880700  1.0  0.0738
  H  H14  1  0.093700  0.014800  0.872300  1.0  0.025
  H  H15  1  0.119800  0.038200  0.168800  1.0  0.0265
  H  H16  1  0.367500  0.823900  0.258900  1.0  0.0903
  H  H17  1  0.787200  0.819200  0.260600  1.0  0.0549
  H  H18  1  0.071000  0.810000  0.609000  1.0  0.4299
  H  H19  1  0.956600  0.242700  0.459100  1.0  0.0885
  H  H20  1  0.960300  0.329700  0.619300  1.0  0.0739
  H  H21  1  0.906300  0.514800  0.627700  1.0  0.025
  H  H22  1  0.880200  0.538200  0.331200  1.0  0.0272
  H  H23  1  0.632500  0.323900  0.241100  1.0  0.0906
  H  H24  1  0.212800  0.319200  0.239400  1.0  0.0537
  H  H25  1  0.929000  0.310000  0.891000  1.0  0.4311
  H  H26  1  0.456600  0.257300  0.540900  1.0  0.0894
  H  H27  1  0.460300  0.170300  0.380700  1.0  0.0734
  H  H28  1  0.406300  0.985200  0.372300  1.0  0.0252
  H  H29  1  0.380200  0.961800  0.668800  1.0  0.0267
  H  H30  1  0.132500  0.176100  0.758900  1.0  0.0914
  H  H31  1  0.712800  0.180800  0.760600  1.0  0.0537
  H  H32  1  0.429000  0.190000  0.109000  1.0  0.4282
  C  C33  1  0.419400  0.687900  0.719200  1.0  0.1121
  C  C34  1  0.737400  0.685300  0.720200  1.0  0.0973
  C  C35  1  0.557900  0.681400  0.964900  1.0  -0.1182
  C  C36  1  0.559100  0.629900  0.059500  1.0  -0.1911
  C  C37  1  0.589300  0.518400  0.063500  1.0  0.1423
  C  C38  1  0.605900  0.504400  0.890100  1.0  0.1175
  C  C39  1  0.578900  0.615600  0.879600  1.0  0.1044
  C  C40  1  0.919400  0.812100  0.280800  1.0  0.1122
  C  C41  1  0.237400  0.814700  0.279800  1.0  0.0966
  C  C42  1  0.057900  0.818600  0.035100  1.0  -0.1194
  C  C43  1  0.059100  0.870100  0.940500  1.0  -0.1907
  C  C44  1  0.089300  0.981600  0.936500  1.0  0.1428
  C  C45  1  0.105900  0.995600  0.109900  1.0  0.1178
  C  C46  1  0.078900  0.884400  0.120400  1.0  0.1044
  C  C47  1  0.080600  0.312100  0.219200  1.0  0.1112
  C  C48  1  0.762600  0.314700  0.220200  1.0  0.0966
  C  C49  1  0.942100  0.318600  0.464900  1.0  -0.1185
  C  C50  1  0.940900  0.370100  0.559500  1.0  -0.191
  C  C51  1  0.910700  0.481600  0.563500  1.0  0.1421
  C  C52  1  0.894100  0.495600  0.390100  1.0  0.1179
  C  C53  1  0.921100  0.384400  0.379600  1.0  0.1048
  C  C54  1  0.580600  0.187900  0.780800  1.0  0.1112
  C  C55  1  0.262600  0.185300  0.779800  1.0  0.0968
  C  C56  1  0.442100  0.181400  0.535100  1.0  -0.1173
  C  C57  1  0.440900  0.129900  0.440500  1.0  -0.1916
  C  C58  1  0.410700  0.018400  0.436500  1.0  0.141
  C  C59  1  0.394100  0.004400  0.609900  1.0  0.118
  C  C60  1  0.421100  0.115600  0.620400  1.0  0.1045
  N  N61  1  0.479100  0.723000  0.630000  1.0  -0.2432
  N  N62  1  0.681700  0.721400  0.630800  1.0  -0.2667
  N  N63  1  0.578200  0.663600  0.778200  1.0  -0.029
  N  N64  1  0.613000  0.454500  0.981100  1.0  -0.4005
  N  N65  1  0.979100  0.777000  0.370000  1.0  -0.2418
  N  N66  1  0.181700  0.778600  0.369200  1.0  -0.2638
  N  N67  1  0.078200  0.836400  0.221800  1.0  -0.0293
  N  N68  1  0.113000  0.045500  0.018900  1.0  -0.401
  N  N69  1  0.020900  0.277000  0.130000  1.0  -0.2426
  N  N70  1  0.818300  0.278600  0.130800  1.0  -0.266
  N  N71  1  0.921800  0.336400  0.278200  1.0  -0.029
  N  N72  1  0.887000  0.545500  0.481100  1.0  -0.4009
  N  N73  1  0.520900  0.223000  0.870000  1.0  -0.2405
  N  N74  1  0.318300  0.221400  0.869200  1.0  -0.2651
  N  N75  1  0.421800  0.163600  0.721800  1.0  -0.0294
  N  N76  1  0.387000  0.954500  0.518900  1.0  -0.3999
  O  O77  1  0.581200  0.747900  0.426200  1.0  -0.9354
  O  O78  1  0.081200  0.752100  0.573800  1.0  -0.9346
  O  O79  1  0.918800  0.252100  0.926200  1.0  -0.9337
  O  O80  1  0.418800  0.247900  0.073800  1.0  -0.9348
