# generated using pymatgen
data_CuH7C7N4O
_symmetry_space_group_name_H-M   'P 1'
_cell_length_a   6.59100000
_cell_length_b   11.07800000
_cell_length_c   15.40800000
_cell_angle_alpha   90.00000000
_cell_angle_beta   90.00000000
_cell_angle_gamma   90.00000000
_symmetry_Int_Tables_number   1
_chemical_formula_structural   CuH7C7N4O
_chemical_formula_sum   'Cu4 H28 C28 N16 O4'
_cell_volume   1125.01662998
_cell_formula_units_Z   4
loop_
 _symmetry_equiv_pos_site_id
 _symmetry_equiv_pos_as_xyz
  1  'x, y, z'
loop_
 _atom_site_type_symbol
 _atom_site_label
 _atom_site_symmetry_multiplicity
 _atom_site_fract_x
 _atom_site_fract_y
 _atom_site_fract_z
 _atom_site_occupancy
 _atom_site_charge
  Cu  Cu1  1  0.750000  0.726010  0.992640  1.0  0.8366
  Cu  Cu2  1  0.250000  0.773990  0.007360  1.0  0.8362
  Cu  Cu3  1  0.750000  0.273990  0.492640  1.0  0.8365
  Cu  Cu4  1  0.250000  0.226010  0.507360  1.0  0.8363
  H  H5  1  0.018300  0.754100  0.878600  1.0  0.211
  H  H6  1  0.708400  0.604900  0.186600  1.0  0.0802
  H  H7  1  0.290100  0.670500  0.206600  1.0  0.0786
  H  H8  1  0.181400  0.721700  0.359400  1.0  0.0962
  H  H9  1  0.168900  0.667800  0.504700  1.0  0.0909
  H  H10  1  0.995300  0.494600  0.544200  1.0  0.0519
  H  H11  1  0.807900  0.448500  0.308000  1.0  0.0562
  H  H12  1  0.518300  0.745900  0.121400  1.0  0.2124
  H  H13  1  0.208400  0.895100  0.813400  1.0  0.0798
  H  H14  1  0.790100  0.829500  0.793400  1.0  0.0782
  H  H15  1  0.681400  0.778300  0.640600  1.0  0.0965
  H  H16  1  0.668900  0.832200  0.495300  1.0  0.0904
  H  H17  1  0.495300  0.005400  0.455800  1.0  0.0523
  H  H18  1  0.307900  0.051500  0.692000  1.0  0.0566
  H  H19  1  0.481700  0.245900  0.378600  1.0  0.2113
  H  H20  1  0.791600  0.395100  0.686600  1.0  0.0796
  H  H21  1  0.209900  0.329500  0.706600  1.0  0.0784
  H  H22  1  0.318600  0.278300  0.859400  1.0  0.0964
  H  H23  1  0.331100  0.332200  0.004700  1.0  0.0911
  H  H24  1  0.504700  0.505400  0.044200  1.0  0.0518
  H  H25  1  0.692100  0.551500  0.808000  1.0  0.0569
  H  H26  1  0.981700  0.254100  0.621400  1.0  0.213
  H  H27  1  0.291600  0.104900  0.313400  1.0  0.0789
  H  H28  1  0.709900  0.170500  0.293400  1.0  0.0781
  H  H29  1  0.818600  0.221700  0.140600  1.0  0.0966
  H  H30  1  0.831100  0.167800  0.995300  1.0  0.0902
  H  H31  1  0.004700  0.994600  0.955800  1.0  0.0519
  H  H32  1  0.192100  0.948500  0.192000  1.0  0.0568
  C  C33  1  0.841000  0.626700  0.173400  1.0  0.1216
  C  C34  1  0.159800  0.662200  0.184300  1.0  0.079
  C  C35  1  0.990500  0.589800  0.320700  1.0  0.0942
  C  C36  1  0.104000  0.656400  0.378000  1.0  -0.1065
  C  C37  1  0.100000  0.623000  0.463100  1.0  -0.1359
  C  C38  1  0.989000  0.520300  0.486800  1.0  0.1365
  C  C39  1  0.881900  0.492600  0.348400  1.0  0.1318
  C  C40  1  0.341000  0.873300  0.826600  1.0  0.1205
  C  C41  1  0.659800  0.837800  0.815700  1.0  0.0782
  C  C42  1  0.490500  0.910200  0.679300  1.0  0.0949
  C  C43  1  0.604000  0.843600  0.622000  1.0  -0.1064
  C  C44  1  0.600000  0.877000  0.536900  1.0  -0.1359
  C  C45  1  0.489000  0.979700  0.513200  1.0  0.1358
  C  C46  1  0.381900  0.007400  0.651600  1.0  0.132
  C  C47  1  0.659000  0.373300  0.673400  1.0  0.12
  C  C48  1  0.340200  0.337800  0.684300  1.0  0.0788
  C  C49  1  0.509500  0.410200  0.820700  1.0  0.0949
  C  C50  1  0.396000  0.343600  0.878000  1.0  -0.1052
  C  C51  1  0.400000  0.377000  0.963100  1.0  -0.1347
  C  C52  1  0.511000  0.479700  0.986800  1.0  0.1362
  C  C53  1  0.618100  0.507400  0.848400  1.0  0.1313
  C  C54  1  0.159000  0.126700  0.326600  1.0  0.1205
  C  C55  1  0.840200  0.162200  0.315700  1.0  0.0783
  C  C56  1  0.009500  0.089800  0.179300  1.0  0.0943
  C  C57  1  0.896000  0.156400  0.122000  1.0  -0.1063
  C  C58  1  0.900000  0.123000  0.036900  1.0  -0.1356
  C  C59  1  0.011000  0.020300  0.013200  1.0  0.1364
  C  C60  1  0.118100  0.992600  0.151600  1.0  0.1314
  N  N61  1  0.105300  0.688100  0.105200  1.0  -0.2499
  N  N62  1  0.900700  0.666900  0.098300  1.0  -0.2721
  N  N63  1  0.996300  0.621100  0.229000  1.0  0.0054
  N  N64  1  0.877800  0.458300  0.431900  1.0  -0.3687
  N  N65  1  0.605300  0.811900  0.894800  1.0  -0.2505
  N  N66  1  0.400700  0.833100  0.901700  1.0  -0.2733
  N  N67  1  0.496300  0.878900  0.771000  1.0  0.0046
  N  N68  1  0.377800  0.041700  0.568100  1.0  -0.368
  N  N69  1  0.394700  0.311900  0.605200  1.0  -0.2506
  N  N70  1  0.599300  0.333100  0.598300  1.0  -0.2709
  N  N71  1  0.503700  0.378900  0.729000  1.0  0.0049
  N  N72  1  0.622200  0.541700  0.931900  1.0  -0.3684
  N  N73  1  0.894700  0.188100  0.394800  1.0  -0.2506
  N  N74  1  0.099300  0.166900  0.401700  1.0  -0.2719
  N  N75  1  0.003700  0.121100  0.271000  1.0  0.0048
  N  N76  1  0.122200  0.958300  0.068100  1.0  -0.3687
  O  O77  1  0.009200  0.752000  0.938800  1.0  -0.9344
  O  O78  1  0.509200  0.748000  0.061200  1.0  -0.9376
  O  O79  1  0.490800  0.248000  0.438800  1.0  -0.9345
  O  O80  1  0.990800  0.252000  0.561200  1.0  -0.9373
