# generated using pymatgen
data_Cu4Si3H28C28N16(OF6)3
_symmetry_space_group_name_H-M   'P 1'
_cell_length_a   18.02800000
_cell_length_b   18.92400000
_cell_length_c   18.48400000
_cell_angle_alpha   109.97500000
_cell_angle_beta   90.00000000
_cell_angle_gamma   90.00000000
_symmetry_Int_Tables_number   1
_chemical_formula_structural   Cu4Si3H28C28N16(OF6)3
_chemical_formula_sum   'Cu16 Si12 H112 C112 N64 O12 F72'
_cell_volume   5926.67604876
_cell_formula_units_Z   4
loop_
 _symmetry_equiv_pos_site_id
 _symmetry_equiv_pos_as_xyz
  1  'x, y, z'
loop_
 _atom_site_type_symbol
 _atom_site_label
 _atom_site_symmetry_multiplicity
 _atom_site_fract_x
 _atom_site_fract_y
 _atom_site_fract_z
 _atom_site_occupancy
 _atom_site_charge
  Cu  Cu1  1  0.425300  0.577580  0.237710  1.0  0.6064
  Cu  Cu2  1  0.545200  0.687970  0.366730  1.0  0.7454
  Cu  Cu3  1  0.405470  0.228440  0.437660  1.0  0.7196
  Cu  Cu4  1  0.391150  0.089410  0.275750  1.0  0.6776
  Cu  Cu5  1  0.925300  0.422420  0.262290  1.0  0.607
  Cu  Cu6  1  0.045200  0.312030  0.133270  1.0  0.745
  Cu  Cu7  1  0.905470  0.771560  0.062340  1.0  0.7181
  Cu  Cu8  1  0.891150  0.910590  0.224250  1.0  0.6766
  Cu  Cu9  1  0.574700  0.422420  0.762290  1.0  0.6068
  Cu  Cu10  1  0.454800  0.312030  0.633270  1.0  0.7472
  Cu  Cu11  1  0.594530  0.771560  0.562340  1.0  0.7177
  Cu  Cu12  1  0.608850  0.910590  0.724250  1.0  0.6767
  Cu  Cu13  1  0.074700  0.577580  0.737710  1.0  0.606
  Cu  Cu14  1  0.954800  0.687970  0.866730  1.0  0.7474
  Cu  Cu15  1  0.094530  0.228440  0.937660  1.0  0.7187
  Cu  Cu16  1  0.108850  0.089410  0.775750  1.0  0.6771
  Si  Si17  1  0.554700  0.201900  0.907600  1.0  1.7752
  Si  Si18  1  0.725520  0.630680  0.213470  1.0  1.8179
  Si  Si19  1  0.054700  0.798100  0.592400  1.0  1.7763
  Si  Si20  1  0.225520  0.369320  0.286530  1.0  1.8177
  Si  Si21  1  0.445300  0.798100  0.092400  1.0  1.7744
  Si  Si22  1  0.274480  0.369320  0.786530  1.0  1.8172
  Si  Si23  1  0.945300  0.201900  0.407600  1.0  1.7737
  Si  Si24  1  0.774480  0.630680  0.713470  1.0  1.8172
  Si  Si25  1  0.500000  0.000000  0.500000  1.0  1.7474
  Si  Si26  1  0.000000  0.000000  0.000000  1.0  1.7474
  Si  Si27  1  0.000000  0.500000  0.000000  1.0  1.8388
  Si  Si28  1  0.500000  0.500000  0.500000  1.0  1.8388
  H  H29  1  0.503100  0.557500  0.340100  1.0  0.2631
  H  H30  1  0.468500  0.102100  0.392000  1.0  0.3345
  H  H31  1  0.504100  0.990200  0.213500  1.0  0.4147
  H  H32  1  0.526800  0.061300  0.204200  1.0  0.416
  H  H33  1  0.501200  0.473100  0.104400  1.0  0.0738
  H  H34  1  0.532700  0.348500  0.050300  1.0  0.1046
  H  H35  1  0.511300  0.268500  0.118000  1.0  0.1226
  H  H36  1  0.411400  0.437800  0.281100  1.0  0.0954
  H  H37  1  0.443200  0.361400  0.363300  1.0  0.0989
  H  H38  1  0.422800  0.194800  0.165100  1.0  0.1108
  H  H39  1  0.639600  0.810600  0.315200  1.0  0.1011
  H  H40  1  0.697400  0.893500  0.532100  1.0  0.1012
  H  H41  1  0.713600  0.012000  0.496000  1.0  0.1187
  H  H42  1  0.804500  0.088200  0.471300  1.0  0.1214
  H  H43  1  0.877500  0.042300  0.365500  1.0  0.0854
  H  H44  1  0.777000  0.847600  0.304000  1.0  0.1027
  H  H45  1  0.158400  0.448700  0.163700  1.0  0.1154
  H  H46  1  0.208700  0.364600  0.943000  1.0  0.1059
  H  H47  1  0.241900  0.503000  0.967900  1.0  0.1261
  H  H48  1  0.331300  0.595400  0.992100  1.0  0.1059
  H  H49  1  0.398200  0.630200  0.102700  1.0  0.0761
  H  H50  1  0.294400  0.482800  0.169600  1.0  0.0901
  H  H51  1  0.248000  0.047700  0.316100  1.0  0.0778
  H  H52  1  0.182000  0.952900  0.335700  1.0  0.1181
  H  H53  1  0.243800  0.842100  0.330700  1.0  0.1364
  H  H54  1  0.430500  0.933300  0.283100  1.0  0.0916
  H  H55  1  0.478000  0.846700  0.362900  1.0  0.095
  H  H56  1  0.319800  0.722700  0.236300  1.0  0.0982
  H  H57  1  0.003100  0.442500  0.159900  1.0  0.2628
  H  H58  1  0.968500  0.897900  0.108000  1.0  0.3341
  H  H59  1  0.004100  0.009800  0.286500  1.0  0.417
  H  H60  1  0.026800  0.938700  0.295800  1.0  0.4152
  H  H61  1  0.001200  0.526900  0.395600  1.0  0.0747
  H  H62  1  0.032700  0.651500  0.449700  1.0  0.1048
  H  H63  1  0.011300  0.731500  0.382000  1.0  0.1218
  H  H64  1  0.911400  0.562200  0.218900  1.0  0.0957
  H  H65  1  0.943200  0.638600  0.136700  1.0  0.0989
  H  H66  1  0.922800  0.805200  0.334900  1.0  0.1112
  H  H67  1  0.139600  0.189400  0.184800  1.0  0.1005
  H  H68  1  0.197400  0.106500  0.967900  1.0  0.1015
  H  H69  1  0.213600  0.988000  0.004000  1.0  0.1186
  H  H70  1  0.304500  0.911800  0.028700  1.0  0.1215
  H  H71  1  0.377500  0.957700  0.134500  1.0  0.0857
  H  H72  1  0.277000  0.152400  0.196000  1.0  0.1021
  H  H73  1  0.658400  0.551300  0.336300  1.0  0.1155
  H  H74  1  0.708700  0.635400  0.557000  1.0  0.1062
  H  H75  1  0.741900  0.497000  0.532100  1.0  0.1263
  H  H76  1  0.831300  0.404600  0.507900  1.0  0.1067
  H  H77  1  0.898200  0.369800  0.397300  1.0  0.0764
  H  H78  1  0.794400  0.517200  0.330400  1.0  0.0907
  H  H79  1  0.748000  0.952300  0.183900  1.0  0.0774
  H  H80  1  0.682000  0.047100  0.164300  1.0  0.1183
  H  H81  1  0.743800  0.157900  0.169300  1.0  0.1369
  H  H82  1  0.930500  0.066700  0.216900  1.0  0.0916
  H  H83  1  0.978000  0.153300  0.137100  1.0  0.0951
  H  H84  1  0.819800  0.277300  0.263700  1.0  0.0979
  H  H85  1  0.496900  0.442500  0.659900  1.0  0.2623
  H  H86  1  0.531500  0.897900  0.608000  1.0  0.336
  H  H87  1  0.495900  0.009800  0.786500  1.0  0.4172
  H  H88  1  0.473200  0.938700  0.795800  1.0  0.4153
  H  H89  1  0.498800  0.526900  0.895600  1.0  0.0747
  H  H90  1  0.467300  0.651500  0.949700  1.0  0.1051
  H  H91  1  0.488700  0.731500  0.882000  1.0  0.1218
  H  H92  1  0.588600  0.562200  0.718900  1.0  0.0955
  H  H93  1  0.556800  0.638600  0.636700  1.0  0.1
  H  H94  1  0.577200  0.805200  0.834900  1.0  0.1113
  H  H95  1  0.360400  0.189400  0.684800  1.0  0.1005
  H  H96  1  0.302600  0.106500  0.467900  1.0  0.1024
  H  H97  1  0.286400  0.988000  0.504000  1.0  0.1188
  H  H98  1  0.195500  0.911800  0.528700  1.0  0.1215
  H  H99  1  0.122500  0.957700  0.634500  1.0  0.0856
  H  H100  1  0.223000  0.152400  0.696000  1.0  0.1026
  H  H101  1  0.841600  0.551300  0.836300  1.0  0.1154
  H  H102  1  0.791300  0.635400  0.057000  1.0  0.1066
  H  H103  1  0.758100  0.497000  0.032100  1.0  0.1264
  H  H104  1  0.668700  0.404600  0.007900  1.0  0.1063
  H  H105  1  0.601800  0.369800  0.897300  1.0  0.0761
  H  H106  1  0.705600  0.517200  0.830400  1.0  0.0909
  H  H107  1  0.752000  0.952300  0.683900  1.0  0.0784
  H  H108  1  0.818000  0.047100  0.664300  1.0  0.1204
  H  H109  1  0.756200  0.157900  0.669300  1.0  0.1369
  H  H110  1  0.569500  0.066700  0.716900  1.0  0.0925
  H  H111  1  0.522000  0.153300  0.637100  1.0  0.0947
  H  H112  1  0.680200  0.277300  0.763700  1.0  0.0981
  H  H113  1  0.996900  0.557500  0.840100  1.0  0.2624
  H  H114  1  0.031500  0.102100  0.892000  1.0  0.3361
  H  H115  1  0.995900  0.990200  0.713500  1.0  0.4156
  H  H116  1  0.973200  0.061300  0.704200  1.0  0.4154
  H  H117  1  0.998800  0.473100  0.604400  1.0  0.0739
  H  H118  1  0.967300  0.348500  0.550300  1.0  0.105
  H  H119  1  0.988700  0.268500  0.618000  1.0  0.1222
  H  H120  1  0.088600  0.437800  0.781100  1.0  0.0953
  H  H121  1  0.056800  0.361400  0.863300  1.0  0.1
  H  H122  1  0.077200  0.194800  0.665100  1.0  0.1108
  H  H123  1  0.860400  0.810600  0.815200  1.0  0.1011
  H  H124  1  0.802600  0.893500  0.032100  1.0  0.1019
  H  H125  1  0.786400  0.012000  0.996000  1.0  0.1189
  H  H126  1  0.695500  0.088200  0.971300  1.0  0.1212
  H  H127  1  0.622500  0.042300  0.865500  1.0  0.0856
  H  H128  1  0.723000  0.847600  0.804000  1.0  0.103
  H  H129  1  0.341600  0.448700  0.663700  1.0  0.1153
  H  H130  1  0.291300  0.364600  0.443000  1.0  0.1064
  H  H131  1  0.258100  0.503000  0.467900  1.0  0.1264
  H  H132  1  0.168700  0.595400  0.492100  1.0  0.1059
  H  H133  1  0.101800  0.630200  0.602700  1.0  0.0758
  H  H134  1  0.205600  0.482800  0.669600  1.0  0.0901
  H  H135  1  0.252000  0.047700  0.816100  1.0  0.0779
  H  H136  1  0.318000  0.952900  0.835700  1.0  0.1196
  H  H137  1  0.256200  0.842100  0.830700  1.0  0.1366
  H  H138  1  0.069500  0.933300  0.783100  1.0  0.0923
  H  H139  1  0.022000  0.846700  0.862900  1.0  0.0948
  H  H140  1  0.180200  0.722700  0.736300  1.0  0.0977
  C  C141  1  0.489500  0.440400  0.130600  1.0  0.1619
  C  C142  1  0.509900  0.365900  0.098300  1.0  -0.1215
  C  C143  1  0.496200  0.318500  0.137400  1.0  -0.1689
  C  C144  1  0.459400  0.345900  0.206500  1.0  0.1282
  C  C145  1  0.437700  0.420300  0.235000  1.0  0.1107
  C  C146  1  0.435800  0.313900  0.326800  1.0  0.1022
  C  C147  1  0.424400  0.222200  0.217500  1.0  0.1283
  C  C148  1  0.643000  0.819000  0.367700  1.0  0.1608
  C  C149  1  0.674500  0.864600  0.486400  1.0  0.135
  C  C150  1  0.737800  0.921900  0.402000  1.0  0.1438
  C  C151  1  0.744200  0.994200  0.453100  1.0  -0.192
  C  C152  1  0.797800  0.039100  0.438000  1.0  -0.1634
  C  C153  1  0.840900  0.011500  0.374200  1.0  0.1291
  C  C154  1  0.782200  0.896600  0.337800  1.0  0.1089
  C  C155  1  0.159300  0.418200  0.112200  1.0  0.1178
  C  C156  1  0.186900  0.371600  0.990500  1.0  0.1335
  C  C157  1  0.258900  0.484600  0.067400  1.0  0.1383
  C  C158  1  0.269600  0.517200  0.013000  1.0  -0.1042
  C  C159  1  0.322600  0.571700  0.027800  1.0  -0.1598
  C  C160  1  0.363200  0.592100  0.094100  1.0  0.1547
  C  C161  1  0.302000  0.506100  0.133300  1.0  0.1296
  C  C162  1  0.272700  0.003600  0.313000  1.0  0.1786
  C  C163  1  0.232500  0.947200  0.325400  1.0  -0.1907
  C  C164  1  0.269000  0.881500  0.322300  1.0  -0.2144
  C  C165  1  0.343100  0.877100  0.306500  1.0  0.1401
  C  C166  1  0.379900  0.937000  0.293800  1.0  0.0927
  C  C167  1  0.449500  0.805800  0.334200  1.0  0.1422
  C  C168  1  0.363000  0.737400  0.265000  1.0  0.1337
  C  C169  1  0.989500  0.559600  0.369400  1.0  0.1628
  C  C170  1  0.009900  0.634100  0.401700  1.0  -0.1234
  C  C171  1  0.996200  0.681500  0.362600  1.0  -0.1722
  C  C172  1  0.959400  0.654100  0.293500  1.0  0.1276
  C  C173  1  0.937700  0.579700  0.265000  1.0  0.1103
  C  C174  1  0.935800  0.686100  0.173200  1.0  0.1025
  C  C175  1  0.924400  0.777800  0.282500  1.0  0.1273
  C  C176  1  0.143000  0.181000  0.132300  1.0  0.1601
  C  C177  1  0.174500  0.135400  0.013600  1.0  0.1356
  C  C178  1  0.237800  0.078100  0.098000  1.0  0.1436
  C  C179  1  0.244200  0.005800  0.046900  1.0  -0.1904
  C  C180  1  0.297800  0.960900  0.062000  1.0  -0.1621
  C  C181  1  0.340900  0.988500  0.125800  1.0  0.1298
  C  C182  1  0.282200  0.103400  0.162200  1.0  0.1097
  C  C183  1  0.659300  0.581800  0.387800  1.0  0.1185
  C  C184  1  0.686900  0.628400  0.509500  1.0  0.1336
  C  C185  1  0.758900  0.515400  0.432600  1.0  0.1382
  C  C186  1  0.769600  0.482800  0.487000  1.0  -0.1041
  C  C187  1  0.822600  0.428300  0.472200  1.0  -0.161
  C  C188  1  0.863200  0.407900  0.405900  1.0  0.1544
  C  C189  1  0.802000  0.493900  0.366700  1.0  0.1297
  C  C190  1  0.772700  0.996400  0.187000  1.0  0.1792
  C  C191  1  0.732500  0.052800  0.174600  1.0  -0.1908
  C  C192  1  0.769000  0.118500  0.177700  1.0  -0.2148
  C  C193  1  0.843100  0.122900  0.193500  1.0  0.1391
  C  C194  1  0.879900  0.063000  0.206200  1.0  0.0918
  C  C195  1  0.949500  0.194200  0.165800  1.0  0.1428
  C  C196  1  0.863000  0.262600  0.235000  1.0  0.1335
  C  C197  1  0.510500  0.559600  0.869400  1.0  0.1619
  C  C198  1  0.490100  0.634100  0.901700  1.0  -0.1255
  C  C199  1  0.503800  0.681500  0.862600  1.0  -0.1708
  C  C200  1  0.540600  0.654100  0.793500  1.0  0.1269
  C  C201  1  0.562300  0.579700  0.765000  1.0  0.1097
  C  C202  1  0.564200  0.686100  0.673200  1.0  0.1028
  C  C203  1  0.575600  0.777800  0.782500  1.0  0.1276
  C  C204  1  0.357000  0.181000  0.632300  1.0  0.1604
  C  C205  1  0.325500  0.135400  0.513600  1.0  0.135
  C  C206  1  0.262200  0.078100  0.598000  1.0  0.1444
  C  C207  1  0.255800  0.005800  0.546900  1.0  -0.1909
  C  C208  1  0.202200  0.960900  0.562000  1.0  -0.1619
  C  C209  1  0.159100  0.988500  0.625800  1.0  0.1299
  C  C210  1  0.217800  0.103400  0.662200  1.0  0.1094
  C  C211  1  0.840700  0.581800  0.887800  1.0  0.1187
  C  C212  1  0.813100  0.628400  0.009500  1.0  0.1341
  C  C213  1  0.741100  0.515400  0.932600  1.0  0.138
  C  C214  1  0.730400  0.482800  0.987000  1.0  -0.1035
  C  C215  1  0.677400  0.428300  0.972200  1.0  -0.1602
  C  C216  1  0.636800  0.407900  0.905900  1.0  0.154
  C  C217  1  0.698000  0.493900  0.866700  1.0  0.1317
  C  C218  1  0.727300  0.996400  0.687000  1.0  0.1796
  C  C219  1  0.767500  0.052800  0.674600  1.0  -0.1894
  C  C220  1  0.731000  0.118500  0.677700  1.0  -0.2128
  C  C221  1  0.656900  0.122900  0.693500  1.0  0.1399
  C  C222  1  0.620100  0.063000  0.706200  1.0  0.0941
  C  C223  1  0.550500  0.194200  0.665800  1.0  0.1415
  C  C224  1  0.637000  0.262600  0.735000  1.0  0.1336
  C  C225  1  0.010500  0.440400  0.630600  1.0  0.1614
  C  C226  1  0.990100  0.365900  0.598300  1.0  -0.1242
  C  C227  1  0.003800  0.318500  0.637400  1.0  -0.1685
  C  C228  1  0.040600  0.345900  0.706500  1.0  0.1273
  C  C229  1  0.062300  0.420300  0.735000  1.0  0.1098
  C  C230  1  0.064200  0.313900  0.826800  1.0  0.1025
  C  C231  1  0.075600  0.222200  0.717500  1.0  0.1284
  C  C232  1  0.857000  0.819000  0.867700  1.0  0.1609
  C  C233  1  0.825500  0.864600  0.986400  1.0  0.1347
  C  C234  1  0.762200  0.921900  0.902000  1.0  0.1447
  C  C235  1  0.755800  0.994200  0.953100  1.0  -0.1925
  C  C236  1  0.702200  0.039100  0.938000  1.0  -0.1637
  C  C237  1  0.659100  0.011500  0.874200  1.0  0.129
  C  C238  1  0.717800  0.896600  0.837800  1.0  0.1084
  C  C239  1  0.340700  0.418200  0.612200  1.0  0.1178
  C  C240  1  0.313100  0.371600  0.490500  1.0  0.1341
  C  C241  1  0.241100  0.484600  0.567400  1.0  0.1382
  C  C242  1  0.230400  0.517200  0.513000  1.0  -0.1042
  C  C243  1  0.177400  0.571700  0.527800  1.0  -0.1594
  C  C244  1  0.136800  0.592100  0.594100  1.0  0.1544
  C  C245  1  0.198000  0.506100  0.633300  1.0  0.1316
  C  C246  1  0.227300  0.003600  0.813000  1.0  0.1791
  C  C247  1  0.267500  0.947200  0.825400  1.0  -0.189
  C  C248  1  0.231000  0.881500  0.822300  1.0  -0.2118
  C  C249  1  0.156900  0.877100  0.806500  1.0  0.1411
  C  C250  1  0.120100  0.937000  0.793800  1.0  0.0948
  C  C251  1  0.050500  0.805800  0.834200  1.0  0.141
  C  C252  1  0.137000  0.737400  0.765000  1.0  0.1323
  N  N253  1  0.453900  0.467600  0.197500  1.0  -0.299
  N  N254  1  0.440200  0.296300  0.248600  1.0  0.0285
  N  N255  1  0.419500  0.253600  0.341300  1.0  -0.1565
  N  N256  1  0.411700  0.195400  0.272400  1.0  -0.198
  N  N257  1  0.606400  0.781900  0.403600  1.0  -0.2022
  N  N258  1  0.626200  0.811600  0.479900  1.0  -0.1906
  N  N259  1  0.686300  0.871100  0.416900  1.0  0.0439
  N  N260  1  0.833200  0.942200  0.323400  1.0  -0.3224
  N  N261  1  0.117100  0.359000  0.080500  1.0  -0.2034
  N  N262  1  0.134800  0.329000  0.003100  1.0  -0.2282
  N  N263  1  0.204400  0.427600  0.057200  1.0  0.039
  N  N264  1  0.354400  0.559400  0.146700  1.0  -0.3226
  N  N265  1  0.343900  0.999100  0.297000  1.0  -0.3069
  N  N266  1  0.383900  0.810500  0.301900  1.0  0.04
  N  N267  1  0.467500  0.735100  0.319300  1.0  -0.2626
  N  N268  1  0.411100  0.691800  0.275600  1.0  -0.2055
  N  N269  1  0.953900  0.532400  0.302500  1.0  -0.2999
  N  N270  1  0.940200  0.703700  0.251400  1.0  0.0278
  N  N271  1  0.919500  0.746400  0.158700  1.0  -0.1575
  N  N272  1  0.911700  0.804600  0.227600  1.0  -0.1999
  N  N273  1  0.106400  0.218100  0.096400  1.0  -0.2029
  N  N274  1  0.126200  0.188400  0.020100  1.0  -0.1914
  N  N275  1  0.186300  0.128900  0.083100  1.0  0.0441
  N  N276  1  0.333200  0.057800  0.176600  1.0  -0.3216
  N  N277  1  0.617100  0.641000  0.419500  1.0  -0.2042
  N  N278  1  0.634800  0.671000  0.496900  1.0  -0.229
  N  N279  1  0.704400  0.572400  0.442800  1.0  0.0396
  N  N280  1  0.854400  0.440600  0.353300  1.0  -0.3258
  N  N281  1  0.843900  0.000900  0.203000  1.0  -0.3057
  N  N282  1  0.883900  0.189500  0.198100  1.0  0.0402
  N  N283  1  0.967500  0.264900  0.180700  1.0  -0.2623
  N  N284  1  0.911100  0.308200  0.224400  1.0  -0.2062
  N  N285  1  0.546100  0.532400  0.802500  1.0  -0.2993
  N  N286  1  0.559800  0.703700  0.751400  1.0  0.0278
  N  N287  1  0.580500  0.746400  0.658700  1.0  -0.1566
  N  N288  1  0.588300  0.804600  0.727600  1.0  -0.1992
  N  N289  1  0.393600  0.218100  0.596400  1.0  -0.2032
  N  N290  1  0.373800  0.188400  0.520100  1.0  -0.1909
  N  N291  1  0.313700  0.128900  0.583100  1.0  0.0445
  N  N292  1  0.166800  0.057800  0.676600  1.0  -0.3224
  N  N293  1  0.882900  0.641000  0.919500  1.0  -0.204
  N  N294  1  0.865200  0.671000  0.996900  1.0  -0.2297
  N  N295  1  0.795600  0.572400  0.942800  1.0  0.0387
  N  N296  1  0.645600  0.440600  0.853300  1.0  -0.3261
  N  N297  1  0.656100  0.000900  0.703000  1.0  -0.306
  N  N298  1  0.616100  0.189500  0.698100  1.0  0.0404
  N  N299  1  0.532500  0.264900  0.680700  1.0  -0.2609
  N  N300  1  0.588900  0.308200  0.724400  1.0  -0.2055
  N  N301  1  0.046100  0.467600  0.697500  1.0  -0.2985
  N  N302  1  0.059800  0.296300  0.748600  1.0  0.0275
  N  N303  1  0.080500  0.253600  0.841300  1.0  -0.1559
  N  N304  1  0.088300  0.195400  0.772400  1.0  -0.1982
  N  N305  1  0.893600  0.781900  0.903600  1.0  -0.2015
  N  N306  1  0.873800  0.811600  0.979900  1.0  -0.1897
  N  N307  1  0.813700  0.871100  0.916900  1.0  0.0441
  N  N308  1  0.666800  0.942200  0.823400  1.0  -0.3229
  N  N309  1  0.382900  0.359000  0.580500  1.0  -0.2025
  N  N310  1  0.365200  0.329000  0.503100  1.0  -0.2278
  N  N311  1  0.295600  0.427600  0.557200  1.0  0.038
  N  N312  1  0.145600  0.559400  0.646700  1.0  -0.3226
  N  N313  1  0.156100  0.999100  0.797000  1.0  -0.307
  N  N314  1  0.116100  0.810500  0.801900  1.0  0.0402
  N  N315  1  0.032500  0.735100  0.819300  1.0  -0.2619
  N  N316  1  0.088900  0.691800  0.775600  1.0  -0.2058
  O  O317  1  0.494100  0.596200  0.320900  1.0  -0.8377
  O  O318  1  0.434400  0.129600  0.374700  1.0  -0.9391
  O  O319  1  0.495400  0.036000  0.219500  1.0  -0.8303
  O  O320  1  0.994100  0.403800  0.179100  1.0  -0.835
  O  O321  1  0.934400  0.870400  0.125300  1.0  -0.9394
  O  O322  1  0.995400  0.964000  0.280500  1.0  -0.834
  O  O323  1  0.505900  0.403800  0.679100  1.0  -0.8343
  O  O324  1  0.565600  0.870400  0.625300  1.0  -0.9389
  O  O325  1  0.504600  0.964000  0.780500  1.0  -0.8326
  O  O326  1  0.005900  0.596200  0.820900  1.0  -0.8368
  O  O327  1  0.065600  0.129600  0.874700  1.0  -0.9398
  O  O328  1  0.004600  0.036000  0.719500  1.0  -0.8304
  F  F329  1  0.522700  0.251600  0.860100  1.0  -0.4255
  F  F330  1  0.633700  0.181400  0.865800  1.0  -0.4218
  F  F331  1  0.516300  0.124600  0.857500  1.0  -0.4618
  F  F332  1  0.579400  0.161800  0.970900  1.0  -0.4362
  F  F333  1  0.474900  0.221600  0.958300  1.0  -0.4154
  F  F334  1  0.602000  0.271400  0.968700  1.0  -0.4077
  F  F335  1  0.765700  0.627300  0.293000  1.0  -0.4579
  F  F336  1  0.803300  0.597200  0.164000  1.0  -0.4775
  F  F337  1  0.694700  0.542800  0.196100  1.0  -0.5003
  F  F338  1  0.686800  0.630100  0.132600  1.0  -0.487
  F  F339  1  0.755800  0.717900  0.231400  1.0  -0.417
  F  F340  1  0.645700  0.661700  0.260900  1.0  -0.4737
  F  F341  1  0.022700  0.748400  0.639900  1.0  -0.426
  F  F342  1  0.133700  0.818600  0.634200  1.0  -0.4203
  F  F343  1  0.016300  0.875400  0.642500  1.0  -0.4626
  F  F344  1  0.079400  0.838200  0.529100  1.0  -0.4396
  F  F345  1  0.974900  0.778400  0.541700  1.0  -0.4162
  F  F346  1  0.102000  0.728600  0.531300  1.0  -0.4071
  F  F347  1  0.265700  0.372700  0.207000  1.0  -0.458
  F  F348  1  0.303300  0.402800  0.336000  1.0  -0.4776
  F  F349  1  0.194700  0.457200  0.303900  1.0  -0.5015
  F  F350  1  0.186800  0.369900  0.367400  1.0  -0.4862
  F  F351  1  0.255800  0.282100  0.268600  1.0  -0.4159
  F  F352  1  0.145700  0.338300  0.239100  1.0  -0.4731
  F  F353  1  0.477300  0.748400  0.139900  1.0  -0.4268
  F  F354  1  0.366300  0.818600  0.134200  1.0  -0.4183
  F  F355  1  0.483700  0.875400  0.142500  1.0  -0.4642
  F  F356  1  0.420600  0.838200  0.029100  1.0  -0.4393
  F  F357  1  0.525100  0.778400  0.041700  1.0  -0.4177
  F  F358  1  0.398000  0.728600  0.031300  1.0  -0.4071
  F  F359  1  0.234300  0.372700  0.707000  1.0  -0.4581
  F  F360  1  0.196700  0.402800  0.836000  1.0  -0.4783
  F  F361  1  0.305300  0.457200  0.803900  1.0  -0.5019
  F  F362  1  0.313200  0.369900  0.867400  1.0  -0.4869
  F  F363  1  0.244200  0.282100  0.768600  1.0  -0.4165
  F  F364  1  0.354300  0.338300  0.739100  1.0  -0.4731
  F  F365  1  0.977300  0.251600  0.360100  1.0  -0.4261
  F  F366  1  0.866300  0.181400  0.365800  1.0  -0.4206
  F  F367  1  0.983700  0.124600  0.357500  1.0  -0.4622
  F  F368  1  0.920600  0.161800  0.470900  1.0  -0.4358
  F  F369  1  0.025100  0.221600  0.458300  1.0  -0.4168
  F  F370  1  0.898000  0.271400  0.468700  1.0  -0.4076
  F  F371  1  0.734300  0.627300  0.793000  1.0  -0.4581
  F  F372  1  0.696700  0.597200  0.664000  1.0  -0.4784
  F  F373  1  0.805300  0.542800  0.696100  1.0  -0.5008
  F  F374  1  0.813200  0.630100  0.632600  1.0  -0.4865
  F  F375  1  0.744200  0.717900  0.731400  1.0  -0.4171
  F  F376  1  0.854300  0.661700  0.760900  1.0  -0.4738
  F  F377  1  0.482300  0.919400  0.513700  1.0  -0.4034
  F  F378  1  0.581500  0.006200  0.542000  1.0  -0.4415
  F  F379  1  0.461400  0.048300  0.585100  1.0  -0.4294
  F  F380  1  0.517700  0.080600  0.486300  1.0  -0.4041
  F  F381  1  0.418500  0.993800  0.458000  1.0  -0.4401
  F  F382  1  0.538600  0.951700  0.414900  1.0  -0.4277
  F  F383  1  0.982300  0.080600  0.986300  1.0  -0.4052
  F  F384  1  0.081500  0.993800  0.958000  1.0  -0.4405
  F  F385  1  0.961400  0.951700  0.914900  1.0  -0.4276
  F  F386  1  0.017700  0.919400  0.013700  1.0  -0.4033
  F  F387  1  0.918500  0.006200  0.042000  1.0  -0.4412
  F  F388  1  0.038600  0.048300  0.085100  1.0  -0.4293
  F  F389  1  0.989000  0.490700  0.906000  1.0  -0.4923
  F  F390  1  0.090400  0.494300  0.987500  1.0  -0.4714
  F  F391  1  0.994400  0.406400  0.977600  1.0  -0.4193
  F  F392  1  0.011000  0.509300  0.094000  1.0  -0.4914
  F  F393  1  0.909600  0.505700  0.012500  1.0  -0.4704
  F  F394  1  0.005600  0.593600  0.022400  1.0  -0.4183
  F  F395  1  0.489000  0.509300  0.594000  1.0  -0.4923
  F  F396  1  0.590400  0.505700  0.512500  1.0  -0.4712
  F  F397  1  0.494400  0.593600  0.522400  1.0  -0.4189
  F  F398  1  0.511000  0.490700  0.406000  1.0  -0.4915
  F  F399  1  0.409600  0.494300  0.487500  1.0  -0.4711
  F  F400  1  0.505600  0.406400  0.477600  1.0  -0.4199
