# generated using pymatgen
data_CaH20(C17O4)2
_symmetry_space_group_name_H-M   'P 1'
_cell_length_a   5.11610000
_cell_length_b   10.82390000
_cell_length_c   15.25980000
_cell_angle_alpha   82.99000000
_cell_angle_beta   85.88500000
_cell_angle_gamma   83.05000000
_symmetry_Int_Tables_number   1
_chemical_formula_structural   CaH20(C17O4)2
_chemical_formula_sum   'Ca1 H20 C34 O8'
_cell_volume   831.15553269
_cell_formula_units_Z   1
loop_
 _symmetry_equiv_pos_site_id
 _symmetry_equiv_pos_as_xyz
  1  'x, y, z'
loop_
 _atom_site_type_symbol
 _atom_site_label
 _atom_site_symmetry_multiplicity
 _atom_site_fract_x
 _atom_site_fract_y
 _atom_site_fract_z
 _atom_site_occupancy
 _atom_site_charge
  Ca  Ca1  1  0.000000  0.000000  0.000000  1.0  1.5116
  H  H2  1  0.970800  0.717700  0.481300  1.0  0.1027
  H  H3  1  0.502500  0.254000  0.604300  1.0  0.1186
  H  H4  1  0.658600  0.146200  0.736400  1.0  0.104
  H  H5  1  0.032500  0.311300  0.873700  1.0  0.112
  H  H6  1  0.891500  0.428600  0.743300  1.0  0.0971
  H  H7  1  0.510000  0.525100  0.662100  1.0  0.0924
  H  H8  1  0.619600  0.627700  0.777600  1.0  0.1055
  H  H9  1  0.970500  0.880100  0.741600  1.0  0.1005
  H  H10  1  0.862500  0.777300  0.625200  1.0  0.1126
  H  H11  1  0.600400  0.817000  0.928400  1.0  0.3954
  H  H12  1  0.029200  0.282300  0.518700  1.0  0.1029
  H  H13  1  0.497500  0.746000  0.395700  1.0  0.1186
  H  H14  1  0.341400  0.853800  0.263600  1.0  0.1048
  H  H15  1  0.967500  0.688700  0.126300  1.0  0.1121
  H  H16  1  0.108500  0.571400  0.256700  1.0  0.097
  H  H17  1  0.490000  0.474900  0.337900  1.0  0.0924
  H  H18  1  0.380400  0.372300  0.222400  1.0  0.105
  H  H19  1  0.029500  0.119900  0.258400  1.0  0.1005
  H  H20  1  0.137500  0.222700  0.374800  1.0  0.1123
  H  H21  1  0.399600  0.183000  0.071600  1.0  0.3943
  C  C22  1  0.983400  0.628760  0.488890  1.0  -0.0995
  C  C23  1  0.082300  0.564120  0.566940  1.0  -0.0217
  C  C24  1  0.097300  0.432250  0.578180  1.0  -0.0083
  C  C25  1  0.185800  0.354820  0.661150  1.0  0.0538
  C  C26  1  0.410900  0.268330  0.659180  1.0  -0.0959
  C  C27  1  0.501700  0.202820  0.737730  1.0  -0.0583
  C  C28  1  0.363500  0.220070  0.817850  1.0  -0.124
  C  C29  1  0.132000  0.302110  0.819460  1.0  -0.0295
  C  C30  1  0.046300  0.370620  0.741610  1.0  -0.1326
  C  C31  1  0.467400  0.154520  0.903240  1.0  0.678
  C  C32  1  0.168400  0.636970  0.635470  1.0  0.0183
  C  C33  1  0.397900  0.595650  0.679270  1.0  -0.1071
  C  C34  1  0.463500  0.656800  0.747650  1.0  -0.0604
  C  C35  1  0.300800  0.761370  0.772770  1.0  -0.1498
  C  C36  1  0.077900  0.807040  0.726280  1.0  0.0007
  C  C37  1  0.013000  0.745480  0.657440  1.0  -0.1182
  C  C38  1  0.354800  0.822220  0.851100  1.0  0.6409
  C  C39  1  0.016600  0.371240  0.511110  1.0  -0.0998
  C  C40  1  0.917700  0.435880  0.433060  1.0  -0.0235
  C  C41  1  0.902700  0.567750  0.421820  1.0  -0.0082
  C  C42  1  0.814200  0.645180  0.338850  1.0  0.0529
  C  C43  1  0.589100  0.731670  0.340820  1.0  -0.096
  C  C44  1  0.498300  0.797180  0.262270  1.0  -0.0565
  C  C45  1  0.636500  0.779930  0.182150  1.0  -0.1255
  C  C46  1  0.868000  0.697890  0.180540  1.0  -0.0305
  C  C47  1  0.953700  0.629380  0.258390  1.0  -0.1332
  C  C48  1  0.532600  0.845480  0.096760  1.0  0.678
  C  C49  1  0.831600  0.363030  0.364530  1.0  0.0181
  C  C50  1  0.602100  0.404350  0.320730  1.0  -0.1074
  C  C51  1  0.536500  0.343200  0.252350  1.0  -0.0613
  C  C52  1  0.699200  0.238630  0.227230  1.0  -0.1503
  C  C53  1  0.922100  0.192960  0.273720  1.0  0.0
  C  C54  1  0.987000  0.254520  0.342560  1.0  -0.1204
  C  C55  1  0.645200  0.177780  0.148900  1.0  0.64
  O  O56  1  0.303400  0.147230  0.970790  1.0  -0.6547
  O  O57  1  0.704700  0.113400  0.904310  1.0  -0.7062
  O  O58  1  0.197800  0.903180  0.880930  1.0  -0.6068
  O  O59  1  0.581000  0.779410  0.884670  1.0  -0.509
  O  O60  1  0.696600  0.852770  0.029210  1.0  -0.6548
  O  O61  1  0.295300  0.886600  0.095690  1.0  -0.7074
  O  O62  1  0.802200  0.096820  0.119070  1.0  -0.6065
  O  O63  1  0.419000  0.220590  0.115330  1.0  -0.5098
