# generated using pymatgen
data_YbH32C40(NO)8
_symmetry_space_group_name_H-M   'P 1'
_cell_length_a   24.26000000
_cell_length_b   24.41500000
_cell_length_c   24.53100000
_cell_angle_alpha   83.56600000
_cell_angle_beta   62.29200000
_cell_angle_gamma   61.71700000
_symmetry_Int_Tables_number   1
_chemical_formula_structural   YbH32C40(NO)8
_chemical_formula_sum   'Yb6 H192 C240 N48 O48'
_cell_volume   11218.30837275
_cell_formula_units_Z   6
loop_
 _symmetry_equiv_pos_site_id
 _symmetry_equiv_pos_as_xyz
  1  'x, y, z'
loop_
 _atom_site_type_symbol
 _atom_site_label
 _atom_site_symmetry_multiplicity
 _atom_site_fract_x
 _atom_site_fract_y
 _atom_site_fract_z
 _atom_site_occupancy
 _atom_site_charge
  Yb  Yb1  1  0.158640  0.279990  0.137530  1.0  1.1291
  Yb  Yb2  1  0.743120  0.280670  0.730400  1.0  1.0862
  Yb  Yb3  1  0.348180  0.856760  0.711250  1.0  1.0977
  Yb  Yb4  1  0.841360  0.720010  0.862470  1.0  1.1304
  Yb  Yb5  1  0.256880  0.719330  0.269600  1.0  1.0877
  Yb  Yb6  1  0.651820  0.143240  0.288750  1.0  1.0983
  H  H7  1  0.117700  0.191700  0.281600  1.0  0.099
  H  H8  1  0.966400  0.367900  0.306900  1.0  0.1177
  H  H9  1  0.143100  0.257100  0.987300  1.0  0.1145
  H  H10  1  0.330700  0.163300  0.981000  1.0  0.0985
  H  H11  1  0.186800  0.260800  0.287500  1.0  0.1203
  H  H12  1  0.345000  0.142000  0.133000  1.0  0.116
  H  H13  1  0.175300  0.371400  0.995800  1.0  0.1068
  H  H14  1  0.004600  0.461300  0.155200  1.0  0.1097
  H  H15  1  0.387800  0.194900  0.026000  1.0  0.1105
  H  H16  1  0.249700  0.380200  0.064500  1.0  0.1054
  H  H17  1  0.081900  0.210100  0.073600  1.0  0.0918
  H  H18  1  0.944000  0.357800  0.205500  1.0  0.1148
  H  H19  1  0.045900  0.456300  0.244600  1.0  0.1076
  H  H20  1  0.249000  0.337800  0.193000  1.0  0.1022
  H  H21  1  0.090200  0.157100  0.196400  1.0  0.108
  H  H22  1  0.295000  0.091200  0.079200  1.0  0.1084
  H  H23  1  0.070400  0.191000  0.387800  1.0  0.1146
  H  H24  1  0.921600  0.370100  0.412200  1.0  0.1073
  H  H25  1  0.166300  0.172400  0.931200  1.0  0.1034
  H  H26  1  0.359300  0.075900  0.921300  1.0  0.1192
  H  H27  1  0.266900  0.262300  0.311600  1.0  0.1059
  H  H28  1  0.427100  0.141100  0.156300  1.0  0.1122
  H  H29  1  0.113400  0.429400  0.941600  1.0  0.1063
  H  H30  1  0.940100  0.517300  0.104400  1.0  0.1117
  H  H31  1  0.466100  0.210400  0.935700  1.0  0.0994
  H  H32  1  0.329100  0.396500  0.974600  1.0  0.1067
  H  H33  1  0.005500  0.168400  0.113300  1.0  0.1142
  H  H34  1  0.863600  0.318200  0.247400  1.0  0.1179
  H  H35  1  0.064200  0.541200  0.241000  1.0  0.1176
  H  H36  1  0.271500  0.420800  0.187400  1.0  0.1116
  H  H37  1  0.115400  0.066700  0.244400  1.0  0.1004
  H  H38  1  0.323300  0.000300  0.124400  1.0  0.1186
  H  H39  1  0.987700  0.182600  0.473200  1.0  0.1064
  H  H40  1  0.908200  0.369200  0.511600  1.0  0.1136
  H  H41  1  0.185800  0.059500  0.943500  1.0  0.1102
  H  H42  1  0.378700  0.036500  0.822000  1.0  0.1188
  H  H43  1  0.489400  0.175400  0.161200  1.0  0.1155
  H  H44  1  0.349600  0.233600  0.341900  1.0  0.1127
  H  H45  1  0.443900  0.395300  0.932100  1.0  0.1163
  H  H46  1  0.495600  0.244700  0.828000  1.0  0.1145
  H  H47  1  0.802500  0.272500  0.290600  1.0  0.1228
  H  H48  1  0.939500  0.134700  0.144300  1.0  0.1124
  H  H49  1  0.087900  0.608100  0.274000  1.0  0.1076
  H  H50  1  0.289000  0.498500  0.144800  1.0  0.1085
  H  H51  1  0.151000  0.998200  0.303000  1.0  0.1162
  H  H52  1  0.331200  0.907700  0.142400  1.0  0.1065
  H  H53  1  0.934800  0.177100  0.578000  1.0  0.1221
  H  H54  1  0.857100  0.361100  0.616700  1.0  0.1111
  H  H55  1  0.213700  0.965100  0.896600  1.0  0.1169
  H  H56  1  0.404000  0.944600  0.773200  1.0  0.0996
  H  H57  1  0.569400  0.188000  0.178700  1.0  0.0988
  H  H58  1  0.431000  0.244000  0.357300  1.0  0.1149
  H  H59  1  0.536300  0.406200  0.850700  1.0  0.1138
  H  H60  1  0.583500  0.261000  0.746600  1.0  0.1156
  H  H61  1  0.732800  0.223700  0.331000  1.0  0.1103
  H  H62  1  0.866900  0.087900  0.186600  1.0  0.1081
  H  H63  1  0.113600  0.688300  0.268000  1.0  0.1026
  H  H64  1  0.312900  0.579500  0.142100  1.0  0.1137
  H  H65  1  0.176500  0.904000  0.342300  1.0  0.1194
  H  H66  1  0.353700  0.815600  0.183000  1.0  0.1144
  H  H67  1  0.823900  0.183300  0.566500  1.0  0.1037
  H  H68  1  0.635800  0.335200  0.634400  1.0  0.1041
  H  H69  1  0.856800  0.217000  0.812200  1.0  0.1009
  H  H70  1  0.932000  0.101000  0.664000  1.0  0.1089
  H  H71  1  0.608300  0.350300  0.923400  1.0  0.1137
  H  H72  1  0.752000  0.172700  0.855000  1.0  0.097
  H  H73  1  0.605700  0.464000  0.790800  1.0  0.1146
  H  H74  1  0.729200  0.407600  0.609300  1.0  0.114
  H  H75  1  0.546700  0.205000  0.478900  1.0  0.1134
  H  H76  1  0.749800  0.083000  0.386100  1.0  0.0954
  H  H77  1  0.470700  0.155300  0.432700  1.0  0.1049
  H  H78  1  0.625500  0.995300  0.327900  1.0  0.1059
  H  H79  1  0.793600  0.141500  0.512500  1.0  0.1163
  H  H80  1  0.600300  0.293100  0.583300  1.0  0.1145
  H  H81  1  0.967800  0.167300  0.808700  1.0  0.1099
  H  H82  1  0.047600  0.054100  0.653700  1.0  0.1095
  H  H83  1  0.614700  0.336100  0.015100  1.0  0.1123
  H  H84  1  0.762500  0.155900  0.944500  1.0  0.1112
  H  H85  1  0.521800  0.549700  0.773200  1.0  0.111
  H  H86  1  0.647400  0.492200  0.589100  1.0  0.1105
  H  H87  1  0.568500  0.248400  0.542000  1.0  0.1148
  H  H88  1  0.775300  0.120600  0.447400  1.0  0.1149
  H  H89  1  0.436900  0.105700  0.516700  1.0  0.1126
  H  H90  1  0.594700  0.941100  0.410800  1.0  0.1157
  H  H91  1  0.050800  0.068000  0.823500  1.0  0.1137
  H  H92  1  0.150500  0.066300  0.637200  1.0  0.1135
  H  H93  1  0.596600  0.306200  0.105300  1.0  0.1197
  H  H94  1  0.792800  0.159300  0.014700  1.0  0.1172
  H  H95  1  0.433500  0.594300  0.736300  1.0  0.1085
  H  H96  1  0.598300  0.606800  0.592600  1.0  0.1173
  H  H97  1  0.161300  0.008500  0.820200  1.0  0.1029
  H  H98  1  0.259200  0.011100  0.638100  1.0  0.1182
  H  H99  1  0.601600  0.286200  0.196400  1.0  0.1032
  H  H100  1  0.796000  0.142900  0.108300  1.0  0.1103
  H  H101  1  0.356500  0.689500  0.723000  1.0  0.1222
  H  H102  1  0.519000  0.704900  0.585300  1.0  0.1103
  H  H103  1  0.882300  0.808300  0.718400  1.0  0.0992
  H  H104  1  0.033600  0.632100  0.693100  1.0  0.1172
  H  H105  1  0.856900  0.742900  0.012700  1.0  0.1134
  H  H106  1  0.669300  0.836700  0.019000  1.0  0.0978
  H  H107  1  0.813200  0.739200  0.712500  1.0  0.1202
  H  H108  1  0.655000  0.858000  0.867000  1.0  0.1161
  H  H109  1  0.824700  0.628600  0.004200  1.0  0.107
  H  H110  1  0.995400  0.538700  0.844800  1.0  0.1095
  H  H111  1  0.612200  0.805100  0.974000  1.0  0.1114
  H  H112  1  0.750300  0.619800  0.935500  1.0  0.1054
  H  H113  1  0.918100  0.789900  0.926400  1.0  0.0923
  H  H114  1  0.056000  0.642200  0.794500  1.0  0.1145
  H  H115  1  0.954100  0.543700  0.755400  1.0  0.1077
  H  H116  1  0.751000  0.662200  0.807000  1.0  0.1035
  H  H117  1  0.909800  0.842900  0.803600  1.0  0.1077
  H  H118  1  0.705000  0.908800  0.920800  1.0  0.1073
  H  H119  1  0.929600  0.809000  0.612200  1.0  0.1141
  H  H120  1  0.078400  0.629900  0.587800  1.0  0.1072
  H  H121  1  0.833700  0.827600  0.068800  1.0  0.1036
  H  H122  1  0.640700  0.924100  0.078700  1.0  0.1194
  H  H123  1  0.733100  0.737700  0.688400  1.0  0.106
  H  H124  1  0.572900  0.858900  0.843700  1.0  0.113
  H  H125  1  0.886600  0.570600  0.058400  1.0  0.1076
  H  H126  1  0.059900  0.482700  0.895600  1.0  0.1117
  H  H127  1  0.533900  0.789600  0.064300  1.0  0.0998
  H  H128  1  0.670900  0.603500  0.025400  1.0  0.1064
  H  H129  1  0.994500  0.831600  0.886700  1.0  0.1133
  H  H130  1  0.136400  0.681800  0.752600  1.0  0.1183
  H  H131  1  0.935800  0.458800  0.759000  1.0  0.1174
  H  H132  1  0.728500  0.579200  0.812600  1.0  0.1122
  H  H133  1  0.884600  0.933300  0.755600  1.0  0.1
  H  H134  1  0.676700  0.999700  0.875600  1.0  0.1182
  H  H135  1  0.012300  0.817400  0.526800  1.0  0.1065
  H  H136  1  0.091800  0.630800  0.488400  1.0  0.1134
  H  H137  1  0.814200  0.940500  0.056500  1.0  0.1095
  H  H138  1  0.621300  0.963500  0.178000  1.0  0.1193
  H  H139  1  0.510600  0.824600  0.838800  1.0  0.1147
  H  H140  1  0.650400  0.766400  0.658100  1.0  0.112
  H  H141  1  0.556100  0.604700  0.067900  1.0  0.1154
  H  H142  1  0.504400  0.755300  0.172000  1.0  0.1145
  H  H143  1  0.197500  0.727500  0.709400  1.0  0.1229
  H  H144  1  0.060500  0.865300  0.855700  1.0  0.1128
  H  H145  1  0.912100  0.391900  0.726000  1.0  0.1075
  H  H146  1  0.711000  0.501500  0.855200  1.0  0.1089
  H  H147  1  0.849000  0.001800  0.697000  1.0  0.1162
  H  H148  1  0.668800  0.092300  0.857600  1.0  0.106
  H  H149  1  0.065200  0.822900  0.422000  1.0  0.1231
  H  H150  1  0.142900  0.638900  0.383300  1.0  0.111
  H  H151  1  0.786300  0.034900  0.103400  1.0  0.1169
  H  H152  1  0.596000  0.055400  0.226800  1.0  0.0989
  H  H153  1  0.430600  0.812000  0.821300  1.0  0.0994
  H  H154  1  0.569000  0.756000  0.642700  1.0  0.1139
  H  H155  1  0.463700  0.593800  0.149300  1.0  0.1133
  H  H156  1  0.416500  0.739000  0.253400  1.0  0.1156
  H  H157  1  0.267200  0.776300  0.669000  1.0  0.1103
  H  H158  1  0.133100  0.912100  0.813400  1.0  0.1081
  H  H159  1  0.886400  0.311700  0.732000  1.0  0.1026
  H  H160  1  0.687100  0.420500  0.857900  1.0  0.1133
  H  H161  1  0.823500  0.096000  0.657700  1.0  0.119
  H  H162  1  0.646300  0.184400  0.817000  1.0  0.114
  H  H163  1  0.176100  0.816700  0.433500  1.0  0.1036
  H  H164  1  0.364200  0.664800  0.365600  1.0  0.1035
  H  H165  1  0.143200  0.783000  0.187800  1.0  0.1003
  H  H166  1  0.068000  0.899000  0.336000  1.0  0.11
  H  H167  1  0.391700  0.649700  0.076600  1.0  0.1132
  H  H168  1  0.248000  0.827300  0.145000  1.0  0.0973
  H  H169  1  0.394300  0.536000  0.209200  1.0  0.1154
  H  H170  1  0.270800  0.592400  0.390700  1.0  0.1142
  H  H171  1  0.453300  0.795000  0.521100  1.0  0.113
  H  H172  1  0.250200  0.917000  0.613900  1.0  0.096
  H  H173  1  0.529300  0.844700  0.567300  1.0  0.1048
  H  H174  1  0.374500  0.004700  0.672100  1.0  0.1063
  H  H175  1  0.206400  0.858500  0.487500  1.0  0.1162
  H  H176  1  0.399700  0.706900  0.416700  1.0  0.1142
  H  H177  1  0.032200  0.832700  0.191300  1.0  0.1095
  H  H178  1  0.952400  0.945900  0.346300  1.0  0.11
  H  H179  1  0.385300  0.663900  0.984900  1.0  0.1116
  H  H180  1  0.237500  0.844100  0.055500  1.0  0.1112
  H  H181  1  0.478200  0.450300  0.226800  1.0  0.1113
  H  H182  1  0.352600  0.507800  0.410900  1.0  0.1107
  H  H183  1  0.431500  0.751600  0.458000  1.0  0.1151
  H  H184  1  0.224700  0.879400  0.552600  1.0  0.1138
  H  H185  1  0.563100  0.894300  0.483300  1.0  0.1127
  H  H186  1  0.405300  0.058900  0.589200  1.0  0.1145
  H  H187  1  0.949200  0.932000  0.176500  1.0  0.1137
  H  H188  1  0.849500  0.933700  0.362800  1.0  0.114
  H  H189  1  0.403400  0.693800  0.894700  1.0  0.1194
  H  H190  1  0.207200  0.840700  0.985300  1.0  0.1168
  H  H191  1  0.566500  0.405700  0.263700  1.0  0.1077
  H  H192  1  0.401700  0.393200  0.407400  1.0  0.1171
  H  H193  1  0.838700  0.991500  0.179800  1.0  0.1039
  H  H194  1  0.740800  0.988900  0.361900  1.0  0.1188
  H  H195  1  0.398400  0.713800  0.803600  1.0  0.1033
  H  H196  1  0.204000  0.857100  0.891700  1.0  0.1115
  H  H197  1  0.643500  0.310500  0.277000  1.0  0.1212
  H  H198  1  0.481000  0.295100  0.414700  1.0  0.1096
  C  C199  1  0.075600  0.227400  0.308900  1.0  -0.0002
  C  C200  1  0.987000  0.331300  0.323700  1.0  0.0283
  C  C201  1  0.186900  0.219400  0.974700  1.0  0.0214
  C  C202  1  0.296900  0.164600  0.970800  1.0  0.0115
  C  C203  1  0.236300  0.237500  0.260200  1.0  -0.0078
  C  C204  1  0.329500  0.167300  0.169200  1.0  0.0146
  C  C205  1  0.126900  0.402400  0.018000  1.0  -0.0094
  C  C206  1  0.027100  0.454500  0.111000  1.0  0.0408
  C  C207  1  0.375900  0.236100  0.015000  1.0  -0.003
  C  C208  1  0.294200  0.345800  0.038000  1.0  -0.0299
  C  C209  1  0.037400  0.232100  0.109500  1.0  0.0283
  C  C210  1  0.956100  0.319000  0.187000  1.0  0.0247
  C  C211  1  0.092300  0.449400  0.232500  1.0  0.0436
  C  C212  1  0.211600  0.379700  0.202100  1.0  -0.0022
  C  C213  1  0.137900  0.124800  0.182000  1.0  0.0163
  C  C214  1  0.258200  0.085800  0.113200  1.0  0.0185
  C  C215  1  0.047800  0.227300  0.371800  1.0  -0.1903
  C  C216  1  0.960200  0.332200  0.385800  1.0  -0.1483
  C  C217  1  0.201000  0.169200  0.941200  1.0  -0.158
  C  C218  1  0.314100  0.112200  0.935400  1.0  -0.1946
  C  C219  1  0.283800  0.237700  0.274400  1.0  -0.1191
  C  C220  1  0.377900  0.166700  0.183200  1.0  -0.1695
  C  C221  1  0.089800  0.437000  0.985800  1.0  -0.1473
  C  C222  1  0.989100  0.488300  0.080900  1.0  -0.1726
  C  C223  1  0.422600  0.245600  0.962100  1.0  -0.1775
  C  C224  1  0.341400  0.355200  0.985200  1.0  -0.157
  C  C225  1  0.991900  0.207300  0.133000  1.0  -0.1513
  C  C226  1  0.908400  0.295400  0.212000  1.0  -0.1609
  C  C227  1  0.102900  0.499900  0.230600  1.0  -0.2085
  C  C228  1  0.224800  0.429000  0.199100  1.0  -0.1829
  C  C229  1  0.153100  0.070600  0.210100  1.0  -0.1533
  C  C230  1  0.275100  0.031800  0.139600  1.0  -0.1909
  C  C231  1  0.987500  0.279100  0.412400  1.0  0.1006
  C  C232  1  0.263700  0.114600  0.921400  1.0  0.078
  C  C233  1  0.356600  0.203200  0.236400  1.0  0.0629
  C  C234  1  0.020500  0.481400  0.016300  1.0  0.0547
  C  C235  1  0.408900  0.304600  0.945400  1.0  0.0552
  C  C236  1  0.926800  0.238000  0.184800  1.0  -0.0331
  C  C237  1  0.170800  0.490900  0.213100  1.0  0.0736
  C  C238  1  0.220900  0.022900  0.189500  1.0  0.0609
  C  C239  1  0.954500  0.276200  0.479600  1.0  0.0912
  C  C240  1  0.279200  0.056300  0.888700  1.0  0.0515
  C  C241  1  0.408900  0.206800  0.249300  1.0  0.0704
  C  C242  1  0.462000  0.316200  0.890200  1.0  0.0701
  C  C243  1  0.878900  0.209000  0.212400  1.0  -0.0113
  C  C244  1  0.186400  0.542800  0.210200  1.0  0.0924
  C  C245  1  0.237800  0.963800  0.217200  1.0  0.0578
  C  C246  1  0.960800  0.219900  0.501900  1.0  -0.1695
  C  C247  1  0.914200  0.329500  0.524500  1.0  -0.1706
  C  C248  1  0.231400  0.035600  0.909300  1.0  -0.1673
  C  C249  1  0.344500  0.022300  0.837600  1.0  -0.1882
  C  C250  1  0.476000  0.190800  0.201700  1.0  -0.1718
  C  C251  1  0.394300  0.224700  0.307400  1.0  -0.1898
  C  C252  1  0.473600  0.366200  0.895000  1.0  -0.1843
  C  C253  1  0.503500  0.277800  0.833500  1.0  -0.1465
  C  C254  1  0.816600  0.234600  0.268800  1.0  -0.1515
  C  C255  1  0.897100  0.153600  0.182600  1.0  -0.1596
  C  C256  1  0.134600  0.601400  0.246500  1.0  -0.1543
  C  C257  1  0.252400  0.537000  0.171100  1.0  -0.1844
  C  C258  1  0.192600  0.961000  0.277800  1.0  -0.1756
  C  C259  1  0.298500  0.907600  0.183400  1.0  -0.143
  C  C260  1  0.929300  0.216400  0.564000  1.0  -0.0278
  C  C261  1  0.883300  0.324800  0.586800  1.0  0.0505
  C  C262  1  0.247600  0.979600  0.881300  1.0  0.0204
  C  C263  1  0.359700  0.967400  0.809200  1.0  0.02
  C  C264  1  0.524000  0.197100  0.212200  1.0  0.0089
  C  C265  1  0.442800  0.230100  0.316800  1.0  0.0076
  C  C266  1  0.527500  0.373300  0.846600  1.0  0.0002
  C  C267  1  0.555700  0.287200  0.785400  1.0  0.0068
  C  C268  1  0.775500  0.205500  0.292800  1.0  0.0168
  C  C269  1  0.854300  0.125400  0.208000  1.0  -0.0036
  C  C270  1  0.149800  0.648900  0.243100  1.0  0.0296
  C  C271  1  0.266600  0.585300  0.169100  1.0  0.0337
  C  C272  1  0.207800  0.905300  0.301000  1.0  0.0071
  C  C273  1  0.312100  0.853200  0.207400  1.0  0.0298
  C  C274  1  0.778400  0.206600  0.568500  1.0  0.0059
  C  C275  1  0.668100  0.295500  0.609000  1.0  0.0405
  C  C276  1  0.895300  0.182200  0.781300  1.0  -0.0002
  C  C277  1  0.939900  0.114500  0.693300  1.0  -0.0162
  C  C278  1  0.639300  0.310200  0.928500  1.0  0.0089
  C  C279  1  0.723800  0.206200  0.888300  1.0  0.014
  C  C280  1  0.614100  0.470700  0.749400  1.0  -0.025
  C  C281  1  0.686700  0.437500  0.642800  1.0  0.0603
  C  C282  1  0.593800  0.188600  0.472300  1.0  0.0167
  C  C283  1  0.712700  0.117000  0.418400  1.0  -0.0041
  C  C284  1  0.495700  0.110800  0.428100  1.0  0.0076
  C  C285  1  0.585900  0.017700  0.366900  1.0  -0.0113
  C  C286  1  0.760400  0.181600  0.536900  1.0  -0.2034
  C  C287  1  0.647300  0.270700  0.578000  1.0  -0.1621
  C  C288  1  0.961600  0.153500  0.778200  1.0  -0.1575
  C  C289  1  0.008900  0.085900  0.687500  1.0  -0.1718
  C  C290  1  0.643700  0.302000  0.982400  1.0  -0.1689
  C  C291  1  0.730100  0.196200  0.941100  1.0  -0.1557
  C  C292  1  0.564800  0.521400  0.739000  1.0  -0.1532
  C  C293  1  0.638600  0.487600  0.630900  1.0  -0.1762
  C  C294  1  0.606700  0.214100  0.510400  1.0  -0.1706
  C  C295  1  0.727700  0.139500  0.454700  1.0  -0.1466
  C  C296  1  0.475400  0.081400  0.478000  1.0  -0.1645
  C  C297  1  0.567600  0.985500  0.416000  1.0  -0.1715
  C  C298  1  0.694600  0.213700  0.539700  1.0  0.0405
  C  C299  1  0.019600  0.104500  0.730800  1.0  0.0541
  C  C300  1  0.690400  0.244000  0.989900  1.0  0.073
  C  C301  1  0.576600  0.532200  0.678600  1.0  0.1026
  C  C302  1  0.675800  0.189300  0.502300  1.0  0.0905
  C  C303  1  0.509400  0.017600  0.473600  1.0  0.0911
  C  C304  1  0.088800  0.071500  0.729800  1.0  0.0743
  C  C305  1  0.693700  0.233700  0.050000  1.0  0.0658
  C  C306  1  0.525700  0.590900  0.667300  1.0  0.0681
  C  C307  1  0.093000  0.055200  0.784900  1.0  -0.1721
  C  C308  1  0.151800  0.054800  0.675000  1.0  -0.106
  C  C309  1  0.637600  0.271700  0.105300  1.0  -0.1574
  C  C310  1  0.753000  0.185600  0.051900  1.0  -0.17
  C  C311  1  0.451700  0.616800  0.705100  1.0  -0.1248
  C  C312  1  0.549200  0.624000  0.621100  1.0  -0.1848
  C  C313  1  0.158500  0.020400  0.783000  1.0  -0.0014
  C  C314  1  0.216200  0.021400  0.675300  1.0  0.0097
  C  C315  1  0.640700  0.260000  0.158900  1.0  0.0088
  C  C316  1  0.754600  0.175700  0.107500  1.0  0.0058
  C  C317  1  0.406200  0.673100  0.697600  1.0  0.0289
  C  C318  1  0.501900  0.681600  0.616100  1.0  -0.0017
  C  C319  1  0.924400  0.772600  0.691100  1.0  0.0002
  C  C320  1  0.013000  0.668700  0.676300  1.0  0.0259
  C  C321  1  0.813100  0.780600  0.025300  1.0  0.0195
  C  C322  1  0.703100  0.835400  0.029200  1.0  0.0095
  C  C323  1  0.763700  0.762500  0.739800  1.0  -0.005
  C  C324  1  0.670500  0.832700  0.830800  1.0  0.0151
  C  C325  1  0.873100  0.597600  0.982000  1.0  -0.0106
  C  C326  1  0.972900  0.545500  0.889000  1.0  0.0351
  C  C327  1  0.624100  0.763900  0.985000  1.0  -0.0021
  C  C328  1  0.705800  0.654200  0.962000  1.0  -0.0301
  C  C329  1  0.962600  0.767900  0.890500  1.0  0.0299
  C  C330  1  0.043900  0.681000  0.813000  1.0  0.0254
  C  C331  1  0.907700  0.550600  0.767500  1.0  0.0448
  C  C332  1  0.788400  0.620300  0.797900  1.0  -0.0011
  C  C333  1  0.862100  0.875200  0.818000  1.0  0.0158
  C  C334  1  0.741800  0.914200  0.886800  1.0  0.0184
  C  C335  1  0.952200  0.772700  0.628200  1.0  -0.1885
  C  C336  1  0.039800  0.667800  0.614200  1.0  -0.1478
  C  C337  1  0.799000  0.830800  0.058800  1.0  -0.159
  C  C338  1  0.685900  0.887800  0.064600  1.0  -0.198
  C  C339  1  0.716200  0.762300  0.725600  1.0  -0.1216
  C  C340  1  0.622100  0.833300  0.816800  1.0  -0.1688
  C  C341  1  0.910200  0.563000  0.014200  1.0  -0.1474
  C  C342  1  0.010900  0.511700  0.919100  1.0  -0.1719
  C  C343  1  0.577400  0.754400  0.037900  1.0  -0.1772
  C  C344  1  0.658600  0.644800  0.014800  1.0  -0.156
  C  C345  1  0.008100  0.792700  0.867000  1.0  -0.1518
  C  C346  1  0.091600  0.704600  0.788000  1.0  -0.1605
  C  C347  1  0.897100  0.500100  0.769400  1.0  -0.2088
  C  C348  1  0.775200  0.571000  0.800900  1.0  -0.1837
  C  C349  1  0.846900  0.929400  0.789900  1.0  -0.1524
  C  C350  1  0.724900  0.968200  0.860400  1.0  -0.1922
  C  C351  1  0.012500  0.720900  0.587600  1.0  0.101
  C  C352  1  0.736300  0.885400  0.078600  1.0  0.0783
  C  C353  1  0.643400  0.796800  0.763600  1.0  0.0632
  C  C354  1  0.979500  0.518600  0.983700  1.0  0.0537
  C  C355  1  0.591100  0.695400  0.054600  1.0  0.0548
  C  C356  1  0.073200  0.762000  0.815200  1.0  -0.0334
  C  C357  1  0.829200  0.509100  0.786900  1.0  0.0739
  C  C358  1  0.779100  0.977100  0.810500  1.0  0.0622
  C  C359  1  0.045500  0.723800  0.520400  1.0  0.0914
  C  C360  1  0.720800  0.943700  0.111300  1.0  0.0513
  C  C361  1  0.591100  0.793200  0.750700  1.0  0.0698
  C  C362  1  0.538000  0.683800  0.109800  1.0  0.0704
  C  C363  1  0.121100  0.791000  0.787600  1.0  -0.0132
  C  C364  1  0.813600  0.457200  0.789800  1.0  0.0924
  C  C365  1  0.762200  0.036200  0.782800  1.0  0.0579
  C  C366  1  0.039200  0.780100  0.498100  1.0  -0.1705
  C  C367  1  0.085800  0.670500  0.475500  1.0  -0.1687
  C  C368  1  0.768600  0.964400  0.090700  1.0  -0.1665
  C  C369  1  0.655500  0.977700  0.162400  1.0  -0.1888
  C  C370  1  0.524000  0.809200  0.798300  1.0  -0.1732
  C  C371  1  0.605700  0.775300  0.692600  1.0  -0.1874
  C  C372  1  0.526400  0.633800  0.105000  1.0  -0.184
  C  C373  1  0.496500  0.722200  0.166500  1.0  -0.1467
  C  C374  1  0.183400  0.765400  0.731200  1.0  -0.1525
  C  C375  1  0.102900  0.846400  0.817400  1.0  -0.1618
  C  C376  1  0.865400  0.398600  0.753500  1.0  -0.1534
  C  C377  1  0.747600  0.463000  0.828900  1.0  -0.1852
  C  C378  1  0.807400  0.039000  0.722200  1.0  -0.1755
  C  C379  1  0.701500  0.092400  0.816600  1.0  -0.1444
  C  C380  1  0.070700  0.783600  0.436000  1.0  -0.0281
  C  C381  1  0.116700  0.675200  0.413200  1.0  0.053
  C  C382  1  0.752400  0.020400  0.118700  1.0  0.022
  C  C383  1  0.640300  0.032600  0.190800  1.0  0.0181
  C  C384  1  0.476000  0.802900  0.787800  1.0  0.0105
  C  C385  1  0.557200  0.769900  0.683200  1.0  0.0053
  C  C386  1  0.472500  0.626700  0.153400  1.0  0.0008
  C  C387  1  0.444300  0.712800  0.214600  1.0  0.0074
  C  C388  1  0.224500  0.794500  0.707200  1.0  0.0162
  C  C389  1  0.145700  0.874600  0.792000  1.0  -0.0034
  C  C390  1  0.850200  0.351100  0.756900  1.0  0.0307
  C  C391  1  0.733400  0.414700  0.830900  1.0  0.0342
  C  C392  1  0.792200  0.094700  0.699000  1.0  0.0075
  C  C393  1  0.687900  0.146800  0.792600  1.0  0.0288
  C  C394  1  0.221600  0.793400  0.431500  1.0  0.0054
  C  C395  1  0.331900  0.704500  0.391000  1.0  0.0371
  C  C396  1  0.104700  0.817800  0.218700  1.0  -0.0
  C  C397  1  0.060100  0.885500  0.306700  1.0  -0.0148
  C  C398  1  0.360700  0.689800  0.071500  1.0  0.0084
  C  C399  1  0.276200  0.793800  0.111700  1.0  0.0139
  C  C400  1  0.385900  0.529300  0.250600  1.0  -0.027
  C  C401  1  0.313300  0.562500  0.357200  1.0  0.061
  C  C402  1  0.406200  0.811400  0.527700  1.0  0.0174
  C  C403  1  0.287300  0.883000  0.581600  1.0  -0.0023
  C  C404  1  0.504300  0.889200  0.571900  1.0  0.0038
  C  C405  1  0.414100  0.982300  0.633100  1.0  -0.0083
  C  C406  1  0.239600  0.818400  0.463100  1.0  -0.2031
  C  C407  1  0.352700  0.729300  0.422000  1.0  -0.1609
  C  C408  1  0.038400  0.846500  0.221800  1.0  -0.16
  C  C409  1  0.991100  0.914100  0.312500  1.0  -0.1712
  C  C410  1  0.356300  0.698000  0.017600  1.0  -0.1681
  C  C411  1  0.269900  0.803800  0.058900  1.0  -0.1538
  C  C412  1  0.435200  0.478600  0.261000  1.0  -0.1555
  C  C413  1  0.361400  0.512400  0.369100  1.0  -0.1744
  C  C414  1  0.393300  0.785900  0.489600  1.0  -0.1718
  C  C415  1  0.272300  0.860500  0.545300  1.0  -0.1441
  C  C416  1  0.524600  0.918600  0.522000  1.0  -0.1633
  C  C417  1  0.432400  0.014500  0.584000  1.0  -0.1714
  C  C418  1  0.305400  0.786300  0.460300  1.0  0.0404
  C  C419  1  0.980400  0.895500  0.269200  1.0  0.0547
  C  C420  1  0.309600  0.756000  0.010100  1.0  0.0733
  C  C421  1  0.423400  0.467800  0.321400  1.0  0.1024
  C  C422  1  0.324200  0.810700  0.497700  1.0  0.0886
  C  C423  1  0.490600  0.982400  0.526400  1.0  0.0926
  C  C424  1  0.911200  0.928500  0.270200  1.0  0.0736
  C  C425  1  0.306300  0.766300  0.950000  1.0  0.066
  C  C426  1  0.474300  0.409100  0.332700  1.0  0.0686
  C  C427  1  0.907000  0.944800  0.215100  1.0  -0.1702
  C  C428  1  0.848200  0.945200  0.325000  1.0  -0.1057
  C  C429  1  0.362400  0.728300  0.894700  1.0  -0.1616
  C  C430  1  0.247000  0.814400  0.948100  1.0  -0.1706
  C  C431  1  0.548300  0.383200  0.294900  1.0  -0.127
  C  C432  1  0.450800  0.376000  0.378900  1.0  -0.1863
  C  C433  1  0.841500  0.979600  0.217000  1.0  -0.0019
  C  C434  1  0.783800  0.978600  0.324700  1.0  0.0073
  C  C435  1  0.359300  0.740000  0.841100  1.0  0.0075
  C  C436  1  0.245400  0.824300  0.892500  1.0  0.0065
  C  C437  1  0.593800  0.326900  0.302400  1.0  0.029
  C  C438  1  0.498100  0.318400  0.383900  1.0  -0.0021
  N  N439  1  0.042900  0.278400  0.285500  1.0  0.3111
  N  N440  1  0.235000  0.215300  0.989900  1.0  0.262
  N  N441  1  0.260200  0.203500  0.206300  1.0  0.2496
  N  N442  1  0.094500  0.412600  0.080100  1.0  0.3271
  N  N443  1  0.312000  0.285700  0.052500  1.0  0.2353
  N  N444  1  0.020300  0.286300  0.135700  1.0  0.2358
  N  N445  1  0.145300  0.390600  0.217900  1.0  0.3083
  N  N446  1  0.191300  0.131100  0.134300  1.0  0.297
  N  N447  1  0.890000  0.269100  0.605700  1.0  0.3082
  N  N448  1  0.312000  0.946300  0.832300  1.0  0.3224
  N  N449  1  0.506800  0.216100  0.269600  1.0  0.2878
  N  N450  1  0.568100  0.333600  0.792900  1.0  0.2644
  N  N451  1  0.795400  0.151000  0.262400  1.0  0.2959
  N  N452  1  0.215400  0.641000  0.205000  1.0  0.2902
  N  N453  1  0.267000  0.851600  0.266000  1.0  0.2427
  N  N454  1  0.733400  0.263500  0.602700  1.0  0.3357
  N  N455  1  0.885800  0.160400  0.739900  1.0  0.3286
  N  N456  1  0.678300  0.262300  0.882500  1.0  0.3228
  N  N457  1  0.674900  0.429800  0.701400  1.0  0.3214
  N  N458  1  0.646300  0.142200  0.427400  1.0  0.3142
  N  N459  1  0.548900  0.079500  0.373300  1.0  0.3338
  N  N460  1  0.217100  0.003500  0.729500  1.0  0.3121
  N  N461  1  0.698500  0.211800  0.160600  1.0  0.3073
  N  N462  1  0.431600  0.705900  0.653900  1.0  0.2708
  N  N463  1  0.957100  0.721600  0.714500  1.0  0.3111
  N  N464  1  0.765000  0.784700  0.010100  1.0  0.2608
  N  N465  1  0.739800  0.796500  0.793700  1.0  0.25
  N  N466  1  0.905500  0.587400  0.919900  1.0  0.3294
  N  N467  1  0.688000  0.714300  0.947500  1.0  0.2354
  N  N468  1  0.979700  0.713700  0.864300  1.0  0.2354
  N  N469  1  0.854700  0.609400  0.782100  1.0  0.3073
  N  N470  1  0.808700  0.868900  0.865700  1.0  0.2948
  N  N471  1  0.110000  0.730900  0.394300  1.0  0.3104
  N  N472  1  0.688000  0.053700  0.167700  1.0  0.3239
  N  N473  1  0.493200  0.783900  0.730400  1.0  0.2873
  N  N474  1  0.431900  0.666400  0.207100  1.0  0.2616
  N  N475  1  0.204600  0.849000  0.737600  1.0  0.2993
  N  N476  1  0.784600  0.359000  0.795000  1.0  0.2875
  N  N477  1  0.733000  0.148400  0.734000  1.0  0.2431
  N  N478  1  0.266600  0.736500  0.397300  1.0  0.3375
  N  N479  1  0.114200  0.839600  0.260100  1.0  0.3285
  N  N480  1  0.321700  0.737700  0.117500  1.0  0.3217
  N  N481  1  0.325100  0.570200  0.298600  1.0  0.322
  N  N482  1  0.353700  0.857800  0.572600  1.0  0.3165
  N  N483  1  0.451100  0.920500  0.626700  1.0  0.332
  N  N484  1  0.782900  0.996500  0.270500  1.0  0.3123
  N  N485  1  0.301500  0.788200  0.839400  1.0  0.3077
  N  N486  1  0.568400  0.294100  0.346100  1.0  0.2703
  O  O487  1  0.063600  0.276100  0.224700  1.0  -0.6252
  O  O488  1  0.219300  0.262900  0.025100  1.0  -0.6175
  O  O489  1  0.213500  0.204300  0.191200  1.0  -0.6312
  O  O490  1  0.131000  0.380500  0.110600  1.0  -0.6317
  O  O491  1  0.267400  0.276300  0.105500  1.0  -0.6193
  O  O492  1  0.064800  0.309000  0.113800  1.0  -0.6457
  O  O493  1  0.133100  0.342700  0.221600  1.0  -0.6353
  O  O494  1  0.177300  0.182600  0.107200  1.0  -0.6431
  O  O495  1  0.860400  0.264100  0.665900  1.0  -0.6341
  O  O496  1  0.328400  0.892000  0.807700  1.0  -0.625
  O  O497  1  0.552500  0.222900  0.279900  1.0  -0.6306
  O  O498  1  0.622700  0.339500  0.747900  1.0  -0.6371
  O  O499  1  0.757000  0.121800  0.287000  1.0  -0.6351
  O  O500  1  0.231200  0.686700  0.200800  1.0  -0.6299
  O  O501  1  0.279500  0.797700  0.289100  1.0  -0.6326
  O  O502  1  0.754900  0.287200  0.630100  1.0  -0.6301
  O  O503  1  0.821000  0.183700  0.746100  1.0  -0.6224
  O  O504  1  0.669900  0.271100  0.831800  1.0  -0.6269
  O  O505  1  0.724500  0.382700  0.713600  1.0  -0.6424
  O  O506  1  0.632300  0.119600  0.390700  1.0  -0.6249
  O  O507  1  0.566000  0.110000  0.325000  1.0  -0.6313
  O  O508  1  0.700500  0.200400  0.214000  1.0  -0.6315
  O  O509  1  0.613100  0.236500  0.349500  1.0  -0.6334
  O  O510  1  0.719300  0.031300  0.271300  1.0  -0.62
  O  O511  1  0.936400  0.723900  0.775300  1.0  -0.6255
  O  O512  1  0.780700  0.737100  0.974900  1.0  -0.62
  O  O513  1  0.786500  0.795700  0.808800  1.0  -0.6327
  O  O514  1  0.869000  0.619500  0.889400  1.0  -0.6308
  O  O515  1  0.732600  0.723700  0.894500  1.0  -0.6225
  O  O516  1  0.935200  0.691000  0.886200  1.0  -0.6456
  O  O517  1  0.866900  0.657300  0.778400  1.0  -0.634
  O  O518  1  0.822700  0.817400  0.892800  1.0  -0.6425
  O  O519  1  0.139600  0.735900  0.334100  1.0  -0.6326
  O  O520  1  0.671600  0.108000  0.192300  1.0  -0.6258
  O  O521  1  0.447500  0.777100  0.720100  1.0  -0.6302
  O  O522  1  0.377300  0.660500  0.252100  1.0  -0.6373
  O  O523  1  0.243000  0.878200  0.713000  1.0  -0.6356
  O  O524  1  0.768800  0.313300  0.799200  1.0  -0.6297
  O  O525  1  0.720500  0.202300  0.710900  1.0  -0.633
  O  O526  1  0.245100  0.712800  0.369900  1.0  -0.6305
  O  O527  1  0.179000  0.816300  0.253900  1.0  -0.6228
  O  O528  1  0.330100  0.728900  0.168200  1.0  -0.6265
  O  O529  1  0.275500  0.617300  0.286400  1.0  -0.6414
  O  O530  1  0.367700  0.880400  0.609300  1.0  -0.6253
  O  O531  1  0.434000  0.890000  0.675000  1.0  -0.6306
  O  O532  1  0.299500  0.799600  0.786000  1.0  -0.6323
  O  O533  1  0.386900  0.763500  0.650500  1.0  -0.6315
  O  O534  1  0.280700  0.968700  0.728700  1.0  -0.6222
