# generated using pymatgen
data_Pr2H17C24N5O18
_symmetry_space_group_name_H-M   'P 1'
_cell_length_a   8.57850000
_cell_length_b   13.82360000
_cell_length_c   31.93220000
_cell_angle_alpha   90.00000000
_cell_angle_beta   90.00000000
_cell_angle_gamma   90.00000000
_symmetry_Int_Tables_number   1
_chemical_formula_structural   Pr2H17C24N5O18
_chemical_formula_sum   'Pr8 H68 C96 N20 O72'
_cell_volume   3786.70396917
_cell_formula_units_Z   4
loop_
 _symmetry_equiv_pos_site_id
 _symmetry_equiv_pos_as_xyz
  1  'x, y, z'
loop_
 _atom_site_type_symbol
 _atom_site_label
 _atom_site_symmetry_multiplicity
 _atom_site_fract_x
 _atom_site_fract_y
 _atom_site_fract_z
 _atom_site_occupancy
 _atom_site_charge
  Pr  Pr1  1  0.921040  0.798730  0.103430  1.0  2.2288
  Pr  Pr2  1  0.578960  0.298730  0.896570  1.0  2.2264
  Pr  Pr3  1  0.078960  0.201270  0.603430  1.0  2.2286
  Pr  Pr4  1  0.421040  0.701270  0.396570  1.0  2.2267
  Pr  Pr5  1  0.078960  0.201270  0.896570  1.0  2.2241
  Pr  Pr6  1  0.421040  0.701270  0.103430  1.0  2.2236
  Pr  Pr7  1  0.921040  0.798730  0.396570  1.0  2.2241
  Pr  Pr8  1  0.578960  0.298730  0.603430  1.0  2.2235
  H  H9  1  0.887100  0.594800  0.187600  1.0  0.1221
  H  H10  1  0.466700  0.980100  0.109900  1.0  0.142
  H  H11  1  0.590300  0.185500  0.028200  1.0  0.1271
  H  H12  1  0.212100  0.024800  0.005900  1.0  0.1174
  H  H13  1  0.679400  0.517200  0.226700  1.0  0.3254
  H  H14  1  0.657100  0.174600  0.110600  1.0  0.3611
  H  H15  1  0.690500  0.073700  0.119800  1.0  0.3659
  H  H16  1  0.764100  0.120600  0.084200  1.0  0.3711
  H  H17  1  0.612900  0.094800  0.812400  1.0  0.1219
  H  H18  1  0.033300  0.480100  0.890100  1.0  0.1419
  H  H19  1  0.909700  0.685500  0.971800  1.0  0.1267
  H  H20  1  0.287900  0.524800  0.994100  1.0  0.1176
  H  H21  1  0.820600  0.017200  0.773300  1.0  0.3252
  H  H22  1  0.842900  0.674600  0.889400  1.0  0.3615
  H  H23  1  0.809500  0.573700  0.880200  1.0  0.3641
  H  H24  1  0.735900  0.620600  0.915800  1.0  0.3708
  H  H25  1  0.112900  0.405200  0.687600  1.0  0.1217
  H  H26  1  0.533300  0.019900  0.609900  1.0  0.1419
  H  H27  1  0.409700  0.814500  0.528200  1.0  0.1263
  H  H28  1  0.787900  0.975200  0.505900  1.0  0.1176
  H  H29  1  0.320600  0.482800  0.726700  1.0  0.3256
  H  H30  1  0.342900  0.825400  0.610600  1.0  0.3623
  H  H31  1  0.309500  0.926300  0.619800  1.0  0.3671
  H  H32  1  0.235900  0.879400  0.584200  1.0  0.3697
  H  H33  1  0.387100  0.905200  0.312400  1.0  0.1215
  H  H34  1  0.966700  0.519900  0.390100  1.0  0.1419
  H  H35  1  0.090300  0.314500  0.471800  1.0  0.1264
  H  H36  1  0.712100  0.475200  0.494100  1.0  0.117
  H  H37  1  0.179400  0.982800  0.273300  1.0  0.3246
  H  H38  1  0.157100  0.325400  0.389400  1.0  0.3619
  H  H39  1  0.190500  0.426300  0.380200  1.0  0.3653
  H  H40  1  0.264100  0.379400  0.415800  1.0  0.3714
  H  H41  1  0.112900  0.405200  0.812400  1.0  0.1215
  H  H42  1  0.533300  0.019900  0.890100  1.0  0.1417
  H  H43  1  0.409700  0.814500  0.971800  1.0  0.1261
  H  H44  1  0.787900  0.975200  0.994100  1.0  0.1177
  H  H45  1  0.320600  0.482800  0.773300  1.0  0.3246
  H  H46  1  0.342900  0.825400  0.889400  1.0  0.3618
  H  H47  1  0.309500  0.926300  0.880200  1.0  0.3651
  H  H48  1  0.235900  0.879400  0.915800  1.0  0.3703
  H  H49  1  0.387100  0.905200  0.187600  1.0  0.1218
  H  H50  1  0.966700  0.519900  0.109900  1.0  0.1422
  H  H51  1  0.090300  0.314500  0.028200  1.0  0.1267
  H  H52  1  0.712100  0.475200  0.005900  1.0  0.1173
  H  H53  1  0.179400  0.982800  0.226700  1.0  0.3257
  H  H54  1  0.157100  0.325400  0.110600  1.0  0.3624
  H  H55  1  0.190500  0.426300  0.119800  1.0  0.3676
  H  H56  1  0.264100  0.379400  0.084200  1.0  0.371
  H  H57  1  0.887100  0.594800  0.312400  1.0  0.122
  H  H58  1  0.466700  0.980100  0.390100  1.0  0.1422
  H  H59  1  0.590300  0.185500  0.471800  1.0  0.1268
  H  H60  1  0.212100  0.024800  0.494100  1.0  0.1172
  H  H61  1  0.679400  0.517200  0.273300  1.0  0.3249
  H  H62  1  0.657100  0.174600  0.389400  1.0  0.3617
  H  H63  1  0.690500  0.073700  0.380200  1.0  0.3636
  H  H64  1  0.764100  0.120600  0.415800  1.0  0.3714
  H  H65  1  0.612900  0.094800  0.687600  1.0  0.1219
  H  H66  1  0.033300  0.480100  0.609900  1.0  0.1416
  H  H67  1  0.909700  0.685500  0.528200  1.0  0.1269
  H  H68  1  0.287900  0.524800  0.505900  1.0  0.1174
  H  H69  1  0.820600  0.017200  0.726700  1.0  0.3253
  H  H70  1  0.842900  0.674600  0.610600  1.0  0.3613
  H  H71  1  0.809500  0.573700  0.619800  1.0  0.366
  H  H72  1  0.735900  0.620600  0.584200  1.0  0.3706
  H  H73  1  0.250300  0.708400  0.250000  1.0  0.1075
  H  H74  1  0.249700  0.208400  0.750000  1.0  0.1073
  H  H75  1  0.749700  0.291600  0.750000  1.0  0.1076
  H  H76  1  0.750300  0.791600  0.250000  1.0  0.108
  C  C77  1  0.158300  0.685400  0.172500  1.0  0.7262
  C  C78  1  0.080400  0.657800  0.212590  1.0  -0.1341
  C  C79  1  0.936300  0.610200  0.212700  1.0  -0.1412
  C  C80  1  0.207500  0.915700  0.073280  1.0  0.6995
  C  C81  1  0.321500  0.991200  0.059920  1.0  -0.0701
  C  C82  1  0.448300  0.013600  0.085190  1.0  -0.1263
  C  C83  1  0.545800  0.087000  0.072480  1.0  0.1186
  C  C84  1  0.523000  0.135800  0.035850  1.0  -0.1772
  C  C85  1  0.398400  0.110900  0.009950  1.0  -0.1022
  C  C86  1  0.297600  0.040200  0.022530  1.0  -0.0275
  C  C87  1  0.375100  0.161800  0.969350  1.0  0.7174
  C  C88  1  0.341700  0.185400  0.827500  1.0  0.7267
  C  C89  1  0.419600  0.157800  0.787410  1.0  -0.1339
  C  C90  1  0.563700  0.110200  0.787300  1.0  -0.1404
  C  C91  1  0.292500  0.415700  0.926720  1.0  0.699
  C  C92  1  0.178500  0.491200  0.940080  1.0  -0.0702
  C  C93  1  0.051700  0.513600  0.914810  1.0  -0.1271
  C  C94  1  0.954200  0.587000  0.927520  1.0  0.1188
  C  C95  1  0.977000  0.635800  0.964150  1.0  -0.1773
  C  C96  1  0.101600  0.610900  0.990050  1.0  -0.1014
  C  C97  1  0.202400  0.540200  0.977470  1.0  -0.0282
  C  C98  1  0.124900  0.661800  0.030650  1.0  0.7175
  C  C99  1  0.841700  0.314600  0.672500  1.0  0.7266
  C  C100  1  0.919600  0.342200  0.712590  1.0  -0.134
  C  C101  1  0.063700  0.389800  0.712700  1.0  -0.14
  C  C102  1  0.792500  0.084300  0.573280  1.0  0.699
  C  C103  1  0.678500  0.008800  0.559920  1.0  -0.07
  C  C104  1  0.551700  0.986400  0.585190  1.0  -0.1264
  C  C105  1  0.454200  0.913000  0.572480  1.0  0.1185
  C  C106  1  0.477000  0.864200  0.535850  1.0  -0.178
  C  C107  1  0.601600  0.889100  0.509950  1.0  -0.1017
  C  C108  1  0.702400  0.959800  0.522530  1.0  -0.0285
  C  C109  1  0.624900  0.838200  0.469350  1.0  0.7169
  C  C110  1  0.658300  0.814600  0.327500  1.0  0.7264
  C  C111  1  0.580400  0.842200  0.287410  1.0  -0.1347
  C  C112  1  0.436300  0.889800  0.287300  1.0  -0.1396
  C  C113  1  0.707500  0.584300  0.426720  1.0  0.6989
  C  C114  1  0.821500  0.508800  0.440080  1.0  -0.0706
  C  C115  1  0.948300  0.486400  0.414810  1.0  -0.1255
  C  C116  1  0.045800  0.413000  0.427520  1.0  0.1171
  C  C117  1  0.023000  0.364200  0.464150  1.0  -0.178
  C  C118  1  0.898400  0.389100  0.490050  1.0  -0.1026
  C  C119  1  0.797600  0.459800  0.477470  1.0  -0.0274
  C  C120  1  0.875100  0.338200  0.530650  1.0  0.7167
  C  C121  1  0.841700  0.314600  0.827500  1.0  0.7264
  C  C122  1  0.919600  0.342200  0.787410  1.0  -0.1342
  C  C123  1  0.063700  0.389800  0.787300  1.0  -0.1399
  C  C124  1  0.792500  0.084300  0.926720  1.0  0.6989
  C  C125  1  0.678500  0.008800  0.940080  1.0  -0.0701
  C  C126  1  0.551700  0.986400  0.914810  1.0  -0.1264
  C  C127  1  0.454200  0.913000  0.927520  1.0  0.1181
  C  C128  1  0.477000  0.864200  0.964150  1.0  -0.1774
  C  C129  1  0.601600  0.889100  0.990050  1.0  -0.102
  C  C130  1  0.702400  0.959800  0.977470  1.0  -0.028
  C  C131  1  0.624900  0.838200  0.030650  1.0  0.7178
  C  C132  1  0.658300  0.814600  0.172500  1.0  0.7261
  C  C133  1  0.580400  0.842200  0.212590  1.0  -0.134
  C  C134  1  0.436300  0.889800  0.212700  1.0  -0.1405
  C  C135  1  0.707500  0.584300  0.073280  1.0  0.699
  C  C136  1  0.821500  0.508800  0.059920  1.0  -0.0702
  C  C137  1  0.948300  0.486400  0.085190  1.0  -0.126
  C  C138  1  0.045800  0.413000  0.072480  1.0  0.1176
  C  C139  1  0.023000  0.364200  0.035850  1.0  -0.1786
  C  C140  1  0.898400  0.389100  0.009950  1.0  -0.1029
  C  C141  1  0.797600  0.459800  0.022530  1.0  -0.0274
  C  C142  1  0.875100  0.338200  0.969350  1.0  0.7163
  C  C143  1  0.158300  0.685400  0.327500  1.0  0.7267
  C  C144  1  0.080400  0.657800  0.287410  1.0  -0.1344
  C  C145  1  0.936300  0.610200  0.287300  1.0  -0.1406
  C  C146  1  0.207500  0.915700  0.426720  1.0  0.6993
  C  C147  1  0.321500  0.991200  0.440080  1.0  -0.0707
  C  C148  1  0.448300  0.013600  0.414810  1.0  -0.1262
  C  C149  1  0.545800  0.087000  0.427520  1.0  0.1181
  C  C150  1  0.523000  0.135800  0.464150  1.0  -0.1765
  C  C151  1  0.398400  0.110900  0.490050  1.0  -0.1021
  C  C152  1  0.297600  0.040200  0.477470  1.0  -0.0273
  C  C153  1  0.375100  0.161800  0.530650  1.0  0.7165
  C  C154  1  0.341700  0.185400  0.672500  1.0  0.7267
  C  C155  1  0.419600  0.157800  0.712590  1.0  -0.1341
  C  C156  1  0.563700  0.110200  0.712700  1.0  -0.1417
  C  C157  1  0.292500  0.415700  0.573280  1.0  0.699
  C  C158  1  0.178500  0.491200  0.559920  1.0  -0.07
  C  C159  1  0.051700  0.513600  0.585190  1.0  -0.127
  C  C160  1  0.954200  0.587000  0.572480  1.0  0.1192
  C  C161  1  0.977000  0.635800  0.535850  1.0  -0.178
  C  C162  1  0.101600  0.610900  0.509950  1.0  -0.1011
  C  C163  1  0.202400  0.540200  0.522530  1.0  -0.0285
  C  C164  1  0.124900  0.661800  0.469350  1.0  0.7178
  C  C165  1  0.152500  0.679300  0.250000  1.0  -0.0009
  C  C166  1  0.869000  0.586800  0.250000  1.0  0.2601
  C  C167  1  0.347500  0.179300  0.750000  1.0  0.0002
  C  C168  1  0.631000  0.086800  0.750000  1.0  0.2611
  C  C169  1  0.847500  0.320700  0.750000  1.0  0.0003
  C  C170  1  0.131000  0.413200  0.750000  1.0  0.2663
  C  C171  1  0.652500  0.820700  0.250000  1.0  -0.0007
  C  C172  1  0.369000  0.913200  0.250000  1.0  0.265
  N  N173  1  0.958300  0.972600  0.161800  1.0  0.8395
  N  N174  1  0.677500  0.117000  0.099480  1.0  -0.4302
  N  N175  1  0.541700  0.472600  0.838200  1.0  0.8395
  N  N176  1  0.822500  0.617000  0.900520  1.0  -0.4261
  N  N177  1  0.041700  0.027400  0.661800  1.0  0.8397
  N  N178  1  0.322500  0.883000  0.599480  1.0  -0.427
  N  N179  1  0.458300  0.527400  0.338200  1.0  0.8392
  N  N180  1  0.177500  0.383000  0.400520  1.0  -0.4289
  N  N181  1  0.041700  0.027400  0.838200  1.0  0.8398
  N  N182  1  0.322500  0.883000  0.900520  1.0  -0.4259
  N  N183  1  0.458300  0.527400  0.161800  1.0  0.8402
  N  N184  1  0.177500  0.383000  0.099480  1.0  -0.4285
  N  N185  1  0.958300  0.972600  0.338200  1.0  0.8401
  N  N186  1  0.677500  0.117000  0.400520  1.0  -0.4285
  N  N187  1  0.541700  0.472600  0.661800  1.0  0.8402
  N  N188  1  0.822500  0.617000  0.599480  1.0  -0.4296
  N  N189  1  0.722200  0.533500  0.250000  1.0  -0.7225
  N  N190  1  0.777800  0.033500  0.750000  1.0  -0.7228
  N  N191  1  0.277800  0.466500  0.750000  1.0  -0.7243
  N  N192  1  0.222200  0.966500  0.250000  1.0  -0.724
  O  O193  1  0.247400  0.842900  0.095050  1.0  -0.7715
  O  O194  1  0.065800  0.928700  0.063510  1.0  -0.66
  O  O195  1  0.080200  0.680000  0.138460  1.0  -0.8023
  O  O196  1  0.296500  0.711600  0.173480  1.0  -0.6355
  O  O197  1  0.480000  0.221400  0.957990  1.0  -0.7067
  O  O198  1  0.257100  0.140900  0.948060  1.0  -0.7006
  O  O199  1  0.853400  0.968300  0.134370  1.0  -0.6402
  O  O200  1  0.059900  0.909700  0.163700  1.0  -0.476
  O  O201  1  0.953700  0.038600  0.188700  1.0  -0.4794
  O  O202  1  0.252600  0.342900  0.904950  1.0  -0.7721
  O  O203  1  0.434200  0.428700  0.936490  1.0  -0.6618
  O  O204  1  0.419800  0.180000  0.861540  1.0  -0.8034
  O  O205  1  0.203500  0.211600  0.826520  1.0  -0.6348
  O  O206  1  0.020000  0.721400  0.042010  1.0  -0.7074
  O  O207  1  0.242900  0.640900  0.051940  1.0  -0.7011
  O  O208  1  0.646600  0.468300  0.865630  1.0  -0.641
  O  O209  1  0.440100  0.409700  0.836300  1.0  -0.476
  O  O210  1  0.546300  0.538600  0.811300  1.0  -0.4814
  O  O211  1  0.752600  0.157100  0.595050  1.0  -0.7717
  O  O212  1  0.934200  0.071300  0.563510  1.0  -0.6616
  O  O213  1  0.919800  0.320000  0.638460  1.0  -0.8027
  O  O214  1  0.703500  0.288400  0.673480  1.0  -0.6347
  O  O215  1  0.520000  0.778600  0.457990  1.0  -0.7063
  O  O216  1  0.742900  0.859100  0.448060  1.0  -0.7004
  O  O217  1  0.146600  0.031700  0.634370  1.0  -0.6419
  O  O218  1  0.940100  0.090300  0.663700  1.0  -0.475
  O  O219  1  0.046300  0.961400  0.688700  1.0  -0.4791
  O  O220  1  0.747400  0.657100  0.404950  1.0  -0.7715
  O  O221  1  0.565800  0.571300  0.436490  1.0  -0.6602
  O  O222  1  0.580200  0.820000  0.361540  1.0  -0.8027
  O  O223  1  0.796500  0.788400  0.326520  1.0  -0.6358
  O  O224  1  0.980000  0.278600  0.542010  1.0  -0.706
  O  O225  1  0.757100  0.359100  0.551940  1.0  -0.7011
  O  O226  1  0.353400  0.531700  0.365630  1.0  -0.6398
  O  O227  1  0.559900  0.590300  0.336300  1.0  -0.474
  O  O228  1  0.453700  0.461400  0.311300  1.0  -0.4796
  O  O229  1  0.752600  0.157100  0.904950  1.0  -0.7715
  O  O230  1  0.934200  0.071300  0.936490  1.0  -0.6615
  O  O231  1  0.919800  0.320000  0.861540  1.0  -0.8033
  O  O232  1  0.703500  0.288400  0.826520  1.0  -0.635
  O  O233  1  0.520000  0.778600  0.042010  1.0  -0.7065
  O  O234  1  0.742900  0.859100  0.051940  1.0  -0.7009
  O  O235  1  0.146600  0.031700  0.865630  1.0  -0.6409
  O  O236  1  0.940100  0.090300  0.836300  1.0  -0.4747
  O  O237  1  0.046300  0.961400  0.811300  1.0  -0.4797
  O  O238  1  0.747400  0.657100  0.095050  1.0  -0.7713
  O  O239  1  0.565800  0.571300  0.063510  1.0  -0.6606
  O  O240  1  0.580200  0.820000  0.138460  1.0  -0.8022
  O  O241  1  0.796500  0.788400  0.173480  1.0  -0.6355
  O  O242  1  0.980000  0.278600  0.957990  1.0  -0.7057
  O  O243  1  0.757100  0.359100  0.948060  1.0  -0.7012
  O  O244  1  0.353400  0.531700  0.134370  1.0  -0.6404
  O  O245  1  0.559900  0.590300  0.163700  1.0  -0.4744
  O  O246  1  0.453700  0.461400  0.188700  1.0  -0.4798
  O  O247  1  0.247400  0.842900  0.404950  1.0  -0.7717
  O  O248  1  0.065800  0.928700  0.436490  1.0  -0.6605
  O  O249  1  0.080200  0.680000  0.361540  1.0  -0.8027
  O  O250  1  0.296500  0.711600  0.326520  1.0  -0.6356
  O  O251  1  0.480000  0.221400  0.542010  1.0  -0.7071
  O  O252  1  0.257100  0.140900  0.551940  1.0  -0.7011
  O  O253  1  0.853400  0.968300  0.365630  1.0  -0.6394
  O  O254  1  0.059900  0.909700  0.336300  1.0  -0.4757
  O  O255  1  0.953700  0.038600  0.311300  1.0  -0.482
  O  O256  1  0.252600  0.342900  0.595050  1.0  -0.7717
  O  O257  1  0.434200  0.428700  0.563510  1.0  -0.6613
  O  O258  1  0.419800  0.180000  0.638460  1.0  -0.8028
  O  O259  1  0.203500  0.211600  0.673480  1.0  -0.6346
  O  O260  1  0.020000  0.721400  0.457990  1.0  -0.7071
  O  O261  1  0.242900  0.640900  0.448060  1.0  -0.701
  O  O262  1  0.646600  0.468300  0.634370  1.0  -0.6417
  O  O263  1  0.440100  0.409700  0.663700  1.0  -0.4763
  O  O264  1  0.546300  0.538600  0.688700  1.0  -0.4805
