# generated using pymatgen
data_Ag3H48C64(SN2)4
_symmetry_space_group_name_H-M   'P 1'
_cell_length_a   20.90490000
_cell_length_b   14.68080000
_cell_length_c   14.25150000
_cell_angle_alpha   90.00000000
_cell_angle_beta   108.04300000
_cell_angle_gamma   90.00000000
_symmetry_Int_Tables_number   1
_chemical_formula_structural   Ag3H48C64(SN2)4
_chemical_formula_sum   'Ag6 H96 C128 S8 N16'
_cell_volume   4158.71042989
_cell_formula_units_Z   2
loop_
 _symmetry_equiv_pos_site_id
 _symmetry_equiv_pos_as_xyz
  1  'x, y, z'
loop_
 _atom_site_type_symbol
 _atom_site_label
 _atom_site_symmetry_multiplicity
 _atom_site_fract_x
 _atom_site_fract_y
 _atom_site_fract_z
 _atom_site_occupancy
 _atom_site_charge
  Ag  Ag1  1  0.679450  0.167160  0.709140  1.0  0.3096
  Ag  Ag2  1  0.320550  0.167160  0.790860  1.0  0.3088
  Ag  Ag3  1  0.320550  0.832840  0.290860  1.0  0.3088
  Ag  Ag4  1  0.679450  0.832840  0.209140  1.0  0.3094
  Ag  Ag5  1  0.000000  0.711520  0.750000  1.0  0.3024
  Ag  Ag6  1  0.000000  0.288480  0.250000  1.0  0.3014
  H  H7  1  0.951900  0.105200  0.815100  1.0  0.1229
  H  H8  1  0.051100  0.022900  0.879000  1.0  0.1093
  H  H9  1  0.945500  0.806100  0.923400  1.0  0.1091
  H  H10  1  0.846200  0.887700  0.862400  1.0  0.1202
  H  H11  1  0.064900  0.808200  0.997900  1.0  0.1199
  H  H12  1  0.107500  0.897300  0.991000  1.0  0.1252
  H  H13  1  0.189100  0.698900  0.890000  1.0  0.153
  H  H14  1  0.198900  0.766200  0.981600  1.0  0.1468
  H  H15  1  0.158300  0.722900  0.116300  1.0  0.0954
  H  H16  1  0.116100  0.611300  0.197600  1.0  0.1212
  H  H17  1  0.078100  0.449500  0.955200  1.0  0.1219
  H  H18  1  0.117400  0.563700  0.874200  1.0  0.0964
  H  H19  1  0.456500  0.166500  0.293600  1.0  0.1059
  H  H20  1  0.522200  0.286600  0.377600  1.0  0.1157
  H  H21  1  0.506900  0.190900  0.635400  1.0  0.1019
  H  H22  1  0.440900  0.069900  0.552100  1.0  0.1196
  H  H23  1  0.558300  0.335900  0.633700  1.0  0.1221
  H  H24  1  0.554600  0.382800  0.530300  1.0  0.109
  H  H25  1  0.676600  0.407500  0.706500  1.0  0.1276
  H  H26  1  0.743200  0.380900  0.679800  1.0  0.1429
  H  H27  1  0.745100  0.428500  0.506900  1.0  0.1147
  H  H28  1  0.729800  0.552100  0.399900  1.0  0.1165
  H  H29  1  0.605200  0.667700  0.533800  1.0  0.1021
  H  H30  1  0.619700  0.542900  0.638900  1.0  0.1066
  H  H31  1  0.048100  0.105200  0.684900  1.0  0.1224
  H  H32  1  0.948900  0.022900  0.621000  1.0  0.1086
  H  H33  1  0.054500  0.806100  0.576600  1.0  0.1088
  H  H34  1  0.153800  0.887700  0.637600  1.0  0.1196
  H  H35  1  0.935100  0.808200  0.502100  1.0  0.1198
  H  H36  1  0.892500  0.897300  0.509000  1.0  0.1248
  H  H37  1  0.810900  0.698900  0.610000  1.0  0.1545
  H  H38  1  0.801100  0.766200  0.518400  1.0  0.1469
  H  H39  1  0.841700  0.722900  0.383700  1.0  0.0956
  H  H40  1  0.883900  0.611300  0.302400  1.0  0.1219
  H  H41  1  0.921900  0.449500  0.544800  1.0  0.1224
  H  H42  1  0.882600  0.563700  0.625800  1.0  0.0962
  H  H43  1  0.543500  0.166500  0.206400  1.0  0.1059
  H  H44  1  0.477800  0.286600  0.122400  1.0  0.1161
  H  H45  1  0.493100  0.190900  0.864600  1.0  0.1019
  H  H46  1  0.559100  0.069900  0.947900  1.0  0.1191
  H  H47  1  0.441700  0.335900  0.866300  1.0  0.1228
  H  H48  1  0.445400  0.382800  0.969700  1.0  0.109
  H  H49  1  0.323400  0.407500  0.793500  1.0  0.1279
  H  H50  1  0.256800  0.380900  0.820200  1.0  0.144
  H  H51  1  0.254900  0.428500  0.993100  1.0  0.1147
  H  H52  1  0.270200  0.552100  0.100100  1.0  0.1172
  H  H53  1  0.394800  0.667700  0.966200  1.0  0.1024
  H  H54  1  0.380300  0.542900  0.861100  1.0  0.1068
  H  H55  1  0.048100  0.894800  0.184900  1.0  0.1226
  H  H56  1  0.948900  0.977100  0.121000  1.0  0.1083
  H  H57  1  0.054500  0.193900  0.076600  1.0  0.1088
  H  H58  1  0.153800  0.112300  0.137600  1.0  0.1201
  H  H59  1  0.935100  0.191800  0.002100  1.0  0.1195
  H  H60  1  0.892500  0.102700  0.009000  1.0  0.1247
  H  H61  1  0.810900  0.301100  0.110000  1.0  0.1544
  H  H62  1  0.801100  0.233800  0.018400  1.0  0.146
  H  H63  1  0.841700  0.277100  0.883700  1.0  0.095
  H  H64  1  0.883900  0.388700  0.802400  1.0  0.1218
  H  H65  1  0.921900  0.550500  0.044800  1.0  0.1229
  H  H66  1  0.882600  0.436300  0.125800  1.0  0.0963
  H  H67  1  0.543500  0.833500  0.706400  1.0  0.1057
  H  H68  1  0.477800  0.713400  0.622400  1.0  0.1164
  H  H69  1  0.493100  0.809100  0.364600  1.0  0.1019
  H  H70  1  0.559100  0.930100  0.447900  1.0  0.1192
  H  H71  1  0.441700  0.664100  0.366300  1.0  0.1229
  H  H72  1  0.445400  0.617200  0.469700  1.0  0.1092
  H  H73  1  0.323400  0.592500  0.293500  1.0  0.1277
  H  H74  1  0.256800  0.619100  0.320200  1.0  0.144
  H  H75  1  0.254900  0.571500  0.493100  1.0  0.1152
  H  H76  1  0.270200  0.447900  0.600100  1.0  0.1163
  H  H77  1  0.394800  0.332300  0.466200  1.0  0.1025
  H  H78  1  0.380300  0.457100  0.361100  1.0  0.107
  H  H79  1  0.951900  0.894800  0.315100  1.0  0.1225
  H  H80  1  0.051100  0.977100  0.379000  1.0  0.1088
  H  H81  1  0.945500  0.193900  0.423400  1.0  0.1091
  H  H82  1  0.846200  0.112300  0.362400  1.0  0.1198
  H  H83  1  0.064900  0.191800  0.497900  1.0  0.1188
  H  H84  1  0.107500  0.102700  0.491000  1.0  0.1254
  H  H85  1  0.189100  0.301100  0.390000  1.0  0.1528
  H  H86  1  0.198900  0.233800  0.481600  1.0  0.146
  H  H87  1  0.158300  0.277100  0.616300  1.0  0.0955
  H  H88  1  0.116100  0.388700  0.697600  1.0  0.1213
  H  H89  1  0.078100  0.550500  0.455200  1.0  0.1224
  H  H90  1  0.117400  0.436300  0.374200  1.0  0.0964
  H  H91  1  0.456500  0.833500  0.793600  1.0  0.1057
  H  H92  1  0.522200  0.713400  0.877600  1.0  0.1155
  H  H93  1  0.506900  0.809100  0.135400  1.0  0.1016
  H  H94  1  0.440900  0.930100  0.052100  1.0  0.1195
  H  H95  1  0.558300  0.664100  0.133700  1.0  0.1223
  H  H96  1  0.554600  0.617200  0.030300  1.0  0.1087
  H  H97  1  0.676600  0.592500  0.206500  1.0  0.1273
  H  H98  1  0.743200  0.619100  0.179800  1.0  0.143
  H  H99  1  0.745100  0.571500  0.006900  1.0  0.1145
  H  H100  1  0.729800  0.447900  0.899900  1.0  0.1178
  H  H101  1  0.605200  0.332300  0.033800  1.0  0.1023
  H  H102  1  0.619700  0.457100  0.138900  1.0  0.1068
  C  C103  1  0.828320  0.055800  0.801800  1.0  0.3531
  C  C104  1  0.889970  0.003900  0.834200  1.0  -0.0316
  C  C105  1  0.950730  0.044600  0.838000  1.0  -0.0749
  C  C106  1  0.009270  0.995600  0.875500  1.0  -0.084
  C  C107  1  0.007850  0.907400  0.908200  1.0  0.0836
  C  C108  1  0.946710  0.867200  0.902200  1.0  -0.0956
  C  C109  1  0.888000  0.915200  0.865900  1.0  -0.1096
  C  C110  1  0.072010  0.855300  0.952400  1.0  -0.3208
  C  C111  1  0.165670  0.728100  0.932700  1.0  -0.2945
  C  C112  1  0.140680  0.655500  0.986400  1.0  0.1203
  C  C113  1  0.141020  0.667800  0.083100  1.0  -0.0863
  C  C114  1  0.116780  0.601500  0.132000  1.0  -0.0992
  C  C115  1  0.093370  0.520300  0.083500  1.0  -0.0659
  C  C116  1  0.093770  0.505500  0.987600  1.0  -0.1788
  C  C117  1  0.117230  0.573300  0.940000  1.0  -0.0716
  C  C118  1  0.069000  0.449400  0.133300  1.0  0.3342
  C  C119  1  0.405730  0.029700  0.363900  1.0  0.3378
  C  C120  1  0.443600  0.106400  0.415200  1.0  -0.0308
  C  C121  1  0.467120  0.171100  0.363300  1.0  -0.1566
  C  C122  1  0.505960  0.242200  0.413100  1.0  -0.0889
  C  C123  1  0.521570  0.249700  0.515000  1.0  0.0741
  C  C124  1  0.496900  0.185600  0.565900  1.0  -0.0285
  C  C125  1  0.457790  0.113700  0.516700  1.0  -0.112
  C  C126  1  0.565480  0.325700  0.569000  1.0  -0.3284
  C  C127  1  0.694510  0.393400  0.651500  1.0  -0.3236
  C  C128  1  0.684390  0.474000  0.584000  1.0  0.0979
  C  C129  1  0.716630  0.477300  0.512300  1.0  -0.0722
  C  C130  1  0.707800  0.550400  0.449000  1.0  -0.1926
  C  C131  1  0.666500  0.621300  0.457700  1.0  -0.1031
  C  C132  1  0.633640  0.618800  0.528400  1.0  -0.096
  C  C133  1  0.642520  0.545100  0.590800  1.0  -0.0428
  C  C134  1  0.657920  0.698200  0.392200  1.0  0.3516
  C  C135  1  0.171680  0.055800  0.698200  1.0  0.3553
  C  C136  1  0.110030  0.003900  0.665800  1.0  -0.0291
  C  C137  1  0.049270  0.044600  0.662000  1.0  -0.0767
  C  C138  1  0.990730  0.995600  0.624500  1.0  -0.083
  C  C139  1  0.992150  0.907400  0.591800  1.0  0.0842
  C  C140  1  0.053290  0.867200  0.597800  1.0  -0.0963
  C  C141  1  0.112000  0.915200  0.634100  1.0  -0.1091
  C  C142  1  0.927990  0.855300  0.547600  1.0  -0.3202
  C  C143  1  0.834330  0.728100  0.567300  1.0  -0.2953
  C  C144  1  0.859320  0.655500  0.513600  1.0  0.1203
  C  C145  1  0.858980  0.667800  0.416900  1.0  -0.0875
  C  C146  1  0.883220  0.601500  0.368000  1.0  -0.0968
  C  C147  1  0.906630  0.520300  0.416500  1.0  -0.0673
  C  C148  1  0.906230  0.505500  0.512400  1.0  -0.1787
  C  C149  1  0.882770  0.573300  0.560000  1.0  -0.0695
  C  C150  1  0.931000  0.449400  0.366700  1.0  0.3346
  C  C151  1  0.594270  0.029700  0.136100  1.0  0.3372
  C  C152  1  0.556400  0.106400  0.084800  1.0  -0.028
  C  C153  1  0.532880  0.171100  0.136700  1.0  -0.1577
  C  C154  1  0.494040  0.242200  0.086900  1.0  -0.0894
  C  C155  1  0.478430  0.249700  0.985000  1.0  0.0735
  C  C156  1  0.503100  0.185600  0.934100  1.0  -0.03
  C  C157  1  0.542210  0.113700  0.983300  1.0  -0.1132
  C  C158  1  0.434520  0.325700  0.931000  1.0  -0.3279
  C  C159  1  0.305490  0.393400  0.848500  1.0  -0.3228
  C  C160  1  0.315610  0.474000  0.916000  1.0  0.0971
  C  C161  1  0.283370  0.477300  0.987700  1.0  -0.0686
  C  C162  1  0.292200  0.550400  0.051000  1.0  -0.1921
  C  C163  1  0.333500  0.621300  0.042300  1.0  -0.1021
  C  C164  1  0.366360  0.618800  0.971600  1.0  -0.0961
  C  C165  1  0.357480  0.545100  0.909200  1.0  -0.0442
  C  C166  1  0.342080  0.698200  0.107800  1.0  0.351
  C  C167  1  0.171680  0.944200  0.198200  1.0  0.3557
  C  C168  1  0.110030  0.996100  0.165800  1.0  -0.0287
  C  C169  1  0.049270  0.955400  0.162000  1.0  -0.0765
  C  C170  1  0.990730  0.004400  0.124500  1.0  -0.0837
  C  C171  1  0.992150  0.092600  0.091800  1.0  0.0838
  C  C172  1  0.053290  0.132800  0.097800  1.0  -0.0965
  C  C173  1  0.112000  0.084800  0.134100  1.0  -0.1099
  C  C174  1  0.927990  0.144700  0.047600  1.0  -0.32
  C  C175  1  0.834330  0.271900  0.067300  1.0  -0.2932
  C  C176  1  0.859320  0.344500  0.013600  1.0  0.1203
  C  C177  1  0.858980  0.332200  0.916900  1.0  -0.0874
  C  C178  1  0.883220  0.398500  0.868000  1.0  -0.097
  C  C179  1  0.906630  0.479700  0.916500  1.0  -0.0649
  C  C180  1  0.906230  0.494500  0.012400  1.0  -0.1778
  C  C181  1  0.882770  0.426700  0.060000  1.0  -0.0695
  C  C182  1  0.931000  0.550600  0.866700  1.0  0.3337
  C  C183  1  0.594270  0.970300  0.636100  1.0  0.3365
  C  C184  1  0.556400  0.893600  0.584800  1.0  -0.0285
  C  C185  1  0.532880  0.828900  0.636700  1.0  -0.1579
  C  C186  1  0.494040  0.757800  0.586900  1.0  -0.0901
  C  C187  1  0.478430  0.750300  0.485000  1.0  0.0734
  C  C188  1  0.503100  0.814400  0.434100  1.0  -0.0301
  C  C189  1  0.542210  0.886300  0.483300  1.0  -0.1131
  C  C190  1  0.434520  0.674300  0.431000  1.0  -0.3281
  C  C191  1  0.305490  0.606600  0.348500  1.0  -0.3238
  C  C192  1  0.315610  0.526000  0.416000  1.0  0.0971
  C  C193  1  0.283370  0.522700  0.487700  1.0  -0.0693
  C  C194  1  0.292200  0.449600  0.551000  1.0  -0.1921
  C  C195  1  0.333500  0.378700  0.542300  1.0  -0.1027
  C  C196  1  0.366360  0.381200  0.471600  1.0  -0.0966
  C  C197  1  0.357480  0.454900  0.409200  1.0  -0.0439
  C  C198  1  0.342080  0.301800  0.607800  1.0  0.3523
  C  C199  1  0.828320  0.944200  0.301800  1.0  0.3534
  C  C200  1  0.889970  0.996100  0.334200  1.0  -0.0322
  C  C201  1  0.950730  0.955400  0.338000  1.0  -0.0755
  C  C202  1  0.009270  0.004400  0.375500  1.0  -0.0846
  C  C203  1  0.007850  0.092600  0.408200  1.0  0.0839
  C  C204  1  0.946710  0.132800  0.402200  1.0  -0.0955
  C  C205  1  0.888000  0.084800  0.365900  1.0  -0.1096
  C  C206  1  0.072010  0.144700  0.452400  1.0  -0.3204
  C  C207  1  0.165670  0.271900  0.432700  1.0  -0.2942
  C  C208  1  0.140680  0.344500  0.486400  1.0  0.1202
  C  C209  1  0.141020  0.332200  0.583100  1.0  -0.0869
  C  C210  1  0.116780  0.398500  0.632000  1.0  -0.0998
  C  C211  1  0.093370  0.479700  0.583500  1.0  -0.0647
  C  C212  1  0.093770  0.494500  0.487600  1.0  -0.1783
  C  C213  1  0.117230  0.426700  0.440000  1.0  -0.0723
  C  C214  1  0.069000  0.550600  0.633300  1.0  0.3327
  C  C215  1  0.405730  0.970300  0.863900  1.0  0.3379
  C  C216  1  0.443600  0.893600  0.915200  1.0  -0.0289
  C  C217  1  0.467120  0.828900  0.863300  1.0  -0.1562
  C  C218  1  0.505960  0.757800  0.913100  1.0  -0.0895
  C  C219  1  0.521570  0.750300  0.015000  1.0  0.0742
  C  C220  1  0.496900  0.814400  0.065900  1.0  -0.0288
  C  C221  1  0.457790  0.886300  0.016700  1.0  -0.1127
  C  C222  1  0.565480  0.674300  0.069000  1.0  -0.3286
  C  C223  1  0.694510  0.606600  0.151500  1.0  -0.3234
  C  C224  1  0.684390  0.526000  0.084000  1.0  0.0978
  C  C225  1  0.716630  0.522700  0.012300  1.0  -0.0704
  C  C226  1  0.707800  0.449600  0.949000  1.0  -0.1919
  C  C227  1  0.666500  0.378700  0.957700  1.0  -0.1054
  C  C228  1  0.633640  0.381200  0.028400  1.0  -0.0958
  C  C229  1  0.642520  0.454900  0.090800  1.0  -0.0421
  C  C230  1  0.657920  0.301800  0.892200  1.0  0.3525
  S  S231  1  0.099090  0.801670  0.856820  1.0  -0.0057
  S  S232  1  0.652480  0.293120  0.586380  1.0  -0.0067
  S  S233  1  0.900910  0.801670  0.643180  1.0  -0.008
  S  S234  1  0.347520  0.293120  0.913620  1.0  -0.0058
  S  S235  1  0.900910  0.198330  0.143180  1.0  -0.008
  S  S236  1  0.347520  0.706880  0.413620  1.0  -0.0097
  S  S237  1  0.099090  0.198330  0.356820  1.0  -0.0059
  S  S238  1  0.652480  0.706880  0.086380  1.0  -0.0114
  N  N239  1  0.779970  0.096600  0.781100  1.0  -0.4918
  N  N240  1  0.050150  0.393500  0.172700  1.0  -0.4892
  N  N241  1  0.377680  0.968400  0.323800  1.0  -0.4675
  N  N242  1  0.653220  0.758200  0.340700  1.0  -0.4917
  N  N243  1  0.220030  0.096600  0.718900  1.0  -0.4904
  N  N244  1  0.949850  0.393500  0.327300  1.0  -0.4885
  N  N245  1  0.622320  0.968400  0.176200  1.0  -0.4675
  N  N246  1  0.346780  0.758200  0.159300  1.0  -0.4926
  N  N247  1  0.220030  0.903400  0.218900  1.0  -0.4909
  N  N248  1  0.949850  0.606500  0.827300  1.0  -0.4903
  N  N249  1  0.622320  0.031600  0.676200  1.0  -0.4682
  N  N250  1  0.346780  0.241800  0.659300  1.0  -0.4901
  N  N251  1  0.779970  0.903400  0.281100  1.0  -0.4918
  N  N252  1  0.050150  0.606500  0.672700  1.0  -0.491
  N  N253  1  0.377680  0.031600  0.823800  1.0  -0.4678
  N  N254  1  0.653220  0.241800  0.840700  1.0  -0.4896
