# generated using pymatgen
data_CeH12C28(SO6)2
_symmetry_space_group_name_H-M   'P 1'
_cell_length_a   17.57570000
_cell_length_b   17.57570000
_cell_length_c   17.57570000
_cell_angle_alpha   90.92960000
_cell_angle_beta   90.92960000
_cell_angle_gamma   90.92960000
_symmetry_Int_Tables_number   1
_chemical_formula_structural   CeH12C28(SO6)2
_chemical_formula_sum   'Ce3 H36 C84 S6 O36'
_cell_volume   5427.05847063
_cell_formula_units_Z   3
loop_
 _symmetry_equiv_pos_site_id
 _symmetry_equiv_pos_as_xyz
  1  'x, y, z'
loop_
 _atom_site_type_symbol
 _atom_site_label
 _atom_site_symmetry_multiplicity
 _atom_site_fract_x
 _atom_site_fract_y
 _atom_site_fract_z
 _atom_site_occupancy
 _atom_site_charge
  Ce  Ce1  1  0.367050  0.367050  0.367050  1.0  2.1945
  Ce  Ce2  1  0.632950  0.632950  0.632950  1.0  2.1945
  Ce  Ce3  1  0.500000  0.500000  0.500000  1.0  2.1489
  H  H4  1  0.382000  0.536200  0.232800  1.0  0.1141
  H  H5  1  0.381100  0.573500  0.106700  1.0  0.1299
  H  H6  1  0.610700  0.541100  0.237100  1.0  0.1259
  H  H7  1  0.402600  0.614300  0.967300  1.0  0.1331
  H  H8  1  0.663300  0.625600  0.916400  1.0  0.1305
  H  H9  1  0.445600  0.636800  0.847500  1.0  0.1161
  H  H10  1  0.232800  0.382000  0.536200  1.0  0.115
  H  H11  1  0.106700  0.381100  0.573500  1.0  0.1318
  H  H12  1  0.237100  0.610700  0.541100  1.0  0.127
  H  H13  1  0.967300  0.402600  0.614300  1.0  0.1342
  H  H14  1  0.916400  0.663300  0.625600  1.0  0.1312
  H  H15  1  0.847500  0.445600  0.636800  1.0  0.1156
  H  H16  1  0.536200  0.232800  0.382000  1.0  0.1151
  H  H17  1  0.573500  0.106700  0.381100  1.0  0.1324
  H  H18  1  0.541100  0.237100  0.610700  1.0  0.1259
  H  H19  1  0.614300  0.967300  0.402600  1.0  0.1358
  H  H20  1  0.625600  0.916400  0.663300  1.0  0.1297
  H  H21  1  0.636800  0.847500  0.445600  1.0  0.1161
  H  H22  1  0.618000  0.463800  0.767200  1.0  0.1135
  H  H23  1  0.618900  0.426500  0.893300  1.0  0.1308
  H  H24  1  0.389300  0.458900  0.762900  1.0  0.1267
  H  H25  1  0.597400  0.385700  0.032700  1.0  0.1341
  H  H26  1  0.336700  0.374400  0.083600  1.0  0.1308
  H  H27  1  0.554400  0.363200  0.152500  1.0  0.1163
  H  H28  1  0.767200  0.618000  0.463800  1.0  0.1155
  H  H29  1  0.893300  0.618900  0.426500  1.0  0.1338
  H  H30  1  0.762900  0.389300  0.458900  1.0  0.1268
  H  H31  1  0.032700  0.597400  0.385700  1.0  0.1353
  H  H32  1  0.083600  0.336700  0.374400  1.0  0.1305
  H  H33  1  0.152500  0.554400  0.363200  1.0  0.116
  H  H34  1  0.463800  0.767200  0.618000  1.0  0.1156
  H  H35  1  0.426500  0.893300  0.618900  1.0  0.1315
  H  H36  1  0.458900  0.762900  0.389300  1.0  0.1264
  H  H37  1  0.385700  0.032700  0.597400  1.0  0.1353
  H  H38  1  0.374400  0.083600  0.336700  1.0  0.1309
  H  H39  1  0.363200  0.152500  0.554400  1.0  0.1167
  C  C40  1  0.497600  0.511400  0.328300  1.0  0.6949
  C  C41  1  0.495300  0.534400  0.247900  1.0  -0.1043
  C  C42  1  0.427900  0.544700  0.208400  1.0  -0.0148
  C  C43  1  0.427000  0.567100  0.132900  1.0  -0.1016
  C  C44  1  0.564800  0.548400  0.211500  1.0  0.0359
  C  C45  1  0.564100  0.573100  0.137400  1.0  -0.2088
  C  C46  1  0.496200  0.580300  0.097000  1.0  0.0547
  C  C47  1  0.509400  0.601600  0.016300  1.0  0.0736
  C  C48  1  0.585700  0.607400  0.999600  1.0  -0.2049
  C  C49  1  0.454400  0.615200  0.957500  1.0  -0.0932
  C  C50  1  0.611500  0.622600  0.926200  1.0  0.0219
  C  C51  1  0.480900  0.629400  0.886500  1.0  -0.0133
  C  C52  1  0.558500  0.633100  0.869100  1.0  -0.1056
  C  C53  1  0.583100  0.643200  0.788500  1.0  0.6495
  C  C54  1  0.328300  0.497600  0.511400  1.0  0.6883
  C  C55  1  0.247900  0.495300  0.534400  1.0  -0.1054
  C  C56  1  0.208400  0.427900  0.544700  1.0  -0.016
  C  C57  1  0.132900  0.427000  0.567100  1.0  -0.1045
  C  C58  1  0.211500  0.564800  0.548400  1.0  0.0336
  C  C59  1  0.137400  0.564100  0.573100  1.0  -0.2102
  C  C60  1  0.097000  0.496200  0.580300  1.0  0.0755
  C  C61  1  0.016300  0.509400  0.601600  1.0  0.0759
  C  C62  1  0.999600  0.585700  0.607400  1.0  -0.2047
  C  C63  1  0.957500  0.454400  0.615200  1.0  -0.1014
  C  C64  1  0.926200  0.611500  0.622600  1.0  0.0219
  C  C65  1  0.886500  0.480900  0.629400  1.0  -0.0156
  C  C66  1  0.869100  0.558500  0.633100  1.0  -0.0914
  C  C67  1  0.788500  0.583100  0.643200  1.0  0.6434
  C  C68  1  0.511400  0.328300  0.497600  1.0  0.6901
  C  C69  1  0.534400  0.247900  0.495300  1.0  -0.1059
  C  C70  1  0.544700  0.208400  0.427900  1.0  -0.0099
  C  C71  1  0.567100  0.132900  0.427000  1.0  -0.1
  C  C72  1  0.548400  0.211500  0.564800  1.0  0.0365
  C  C73  1  0.573100  0.137400  0.564100  1.0  -0.2098
  C  C74  1  0.580300  0.097000  0.496200  1.0  0.0654
  C  C75  1  0.601600  0.016300  0.509400  1.0  0.0735
  C  C76  1  0.607400  0.999600  0.585700  1.0  -0.2052
  C  C77  1  0.615200  0.957500  0.454400  1.0  -0.0942
  C  C78  1  0.622600  0.926200  0.611500  1.0  0.0242
  C  C79  1  0.629400  0.886500  0.480900  1.0  -0.015
  C  C80  1  0.633100  0.869100  0.558500  1.0  -0.1055
  C  C81  1  0.643200  0.788500  0.583100  1.0  0.6505
  C  C82  1  0.502400  0.488600  0.671700  1.0  0.6939
  C  C83  1  0.504700  0.465600  0.752100  1.0  -0.1057
  C  C84  1  0.572100  0.455300  0.791600  1.0  -0.0147
  C  C85  1  0.573000  0.432900  0.867100  1.0  -0.1011
  C  C86  1  0.435200  0.451600  0.788500  1.0  0.0352
  C  C87  1  0.435900  0.426900  0.862600  1.0  -0.2125
  C  C88  1  0.503800  0.419700  0.903000  1.0  0.0646
  C  C89  1  0.490600  0.398400  0.983700  1.0  0.0725
  C  C90  1  0.414300  0.392600  0.000400  1.0  -0.208
  C  C91  1  0.545600  0.384800  0.042500  1.0  -0.095
  C  C92  1  0.388500  0.377400  0.073800  1.0  0.023
  C  C93  1  0.519100  0.370600  0.113500  1.0  -0.0151
  C  C94  1  0.441500  0.366900  0.130900  1.0  -0.1051
  C  C95  1  0.416900  0.356800  0.211500  1.0  0.6475
  C  C96  1  0.671700  0.502400  0.488600  1.0  0.6874
  C  C97  1  0.752100  0.504700  0.465600  1.0  -0.1077
  C  C98  1  0.791600  0.572100  0.455300  1.0  -0.0141
  C  C99  1  0.867100  0.573000  0.432900  1.0  -0.1033
  C  C100  1  0.788500  0.435200  0.451600  1.0  0.0337
  C  C101  1  0.862600  0.435900  0.426900  1.0  -0.2101
  C  C102  1  0.903000  0.503800  0.419700  1.0  0.0721
  C  C103  1  0.983700  0.490600  0.398400  1.0  0.0766
  C  C104  1  0.000400  0.414300  0.392600  1.0  -0.2057
  C  C105  1  0.042500  0.545600  0.384800  1.0  -0.0967
  C  C106  1  0.073800  0.388500  0.377400  1.0  0.0211
  C  C107  1  0.113500  0.519100  0.370600  1.0  -0.014
  C  C108  1  0.130900  0.441500  0.366900  1.0  -0.1018
  C  C109  1  0.211500  0.416900  0.356800  1.0  0.6448
  C  C110  1  0.488600  0.671700  0.502400  1.0  0.6887
  C  C111  1  0.465600  0.752100  0.504700  1.0  -0.1082
  C  C112  1  0.455300  0.791600  0.572100  1.0  -0.0089
  C  C113  1  0.432900  0.867100  0.573000  1.0  -0.1039
  C  C114  1  0.451600  0.788500  0.435200  1.0  0.0368
  C  C115  1  0.426900  0.862600  0.435900  1.0  -0.2123
  C  C116  1  0.419700  0.903000  0.503800  1.0  0.0552
  C  C117  1  0.398400  0.983700  0.490600  1.0  0.0742
  C  C118  1  0.392600  0.000400  0.414300  1.0  -0.2049
  C  C119  1  0.384800  0.042500  0.545600  1.0  -0.0943
  C  C120  1  0.377400  0.073800  0.388500  1.0  0.0234
  C  C121  1  0.370600  0.113500  0.519100  1.0  -0.0142
  C  C122  1  0.366900  0.130900  0.441500  1.0  -0.1051
  C  C123  1  0.356800  0.211500  0.416900  1.0  0.6437
  S  S124  1  0.643460  0.590210  0.079900  1.0  1.1252
  S  S125  1  0.079900  0.643460  0.590210  1.0  1.1254
  S  S126  1  0.590210  0.079900  0.643460  1.0  1.1251
  S  S127  1  0.356540  0.409790  0.920100  1.0  1.1283
  S  S128  1  0.920100  0.356540  0.409790  1.0  1.1155
  S  S129  1  0.409790  0.920100  0.356540  1.0  1.1231
  O  O130  1  0.559010  0.510210  0.364110  1.0  -0.5639
  O  O131  1  0.434430  0.491130  0.359930  1.0  -0.7728
  O  O132  1  0.653380  0.637580  0.775680  1.0  -0.6274
  O  O133  1  0.535220  0.654220  0.736920  1.0  -0.6186
  O  O134  1  0.683800  0.659000  0.107000  1.0  -0.5414
  O  O135  1  0.686300  0.521100  0.068400  1.0  -0.53
  O  O136  1  0.364110  0.559010  0.510210  1.0  -0.5616
  O  O137  1  0.359930  0.434430  0.491130  1.0  -0.7712
  O  O138  1  0.775680  0.653380  0.637580  1.0  -0.6228
  O  O139  1  0.736920  0.535220  0.654220  1.0  -0.6154
  O  O140  1  0.107000  0.683800  0.659000  1.0  -0.5369
  O  O141  1  0.068400  0.686300  0.521100  1.0  -0.5342
  O  O142  1  0.510210  0.364110  0.559010  1.0  -0.5631
  O  O143  1  0.491130  0.359930  0.434430  1.0  -0.7734
  O  O144  1  0.637580  0.775680  0.653380  1.0  -0.6341
  O  O145  1  0.654220  0.736920  0.535220  1.0  -0.6167
  O  O146  1  0.659000  0.107000  0.683800  1.0  -0.5393
  O  O147  1  0.521100  0.068400  0.686300  1.0  -0.525
  O  O148  1  0.440990  0.489790  0.635890  1.0  -0.5628
  O  O149  1  0.565570  0.508870  0.640070  1.0  -0.7721
  O  O150  1  0.346620  0.362420  0.224320  1.0  -0.6255
  O  O151  1  0.464780  0.345780  0.263080  1.0  -0.6179
  O  O152  1  0.316200  0.341000  0.893000  1.0  -0.5432
  O  O153  1  0.313700  0.478900  0.931600  1.0  -0.5286
  O  O154  1  0.635890  0.440990  0.489790  1.0  -0.5618
  O  O155  1  0.640070  0.565570  0.508870  1.0  -0.7719
  O  O156  1  0.224320  0.346620  0.362420  1.0  -0.6241
  O  O157  1  0.263080  0.464780  0.345780  1.0  -0.6165
  O  O158  1  0.893000  0.316200  0.341000  1.0  -0.5385
  O  O159  1  0.931600  0.313700  0.478900  1.0  -0.5349
  O  O160  1  0.489790  0.635890  0.440990  1.0  -0.5615
  O  O161  1  0.508870  0.640070  0.565570  1.0  -0.7737
  O  O162  1  0.362420  0.224320  0.346620  1.0  -0.6329
  O  O163  1  0.345780  0.263080  0.464780  1.0  -0.6275
  O  O164  1  0.341000  0.893000  0.316200  1.0  -0.5372
  O  O165  1  0.478900  0.931600  0.313700  1.0  -0.5278
