# generated using pymatgen
data_La2H18C42(SO6)3
_symmetry_space_group_name_H-M   'P 1'
_cell_length_a   16.78530000
_cell_length_b   19.50110000
_cell_length_c   24.29500000
_cell_angle_alpha   112.89100000
_cell_angle_beta   90.00000000
_cell_angle_gamma   90.00000000
_symmetry_Int_Tables_number   1
_chemical_formula_structural   La2H18C42(SO6)3
_chemical_formula_sum   'La8 H72 C168 S12 O72'
_cell_volume   7326.23726816
_cell_formula_units_Z   4
loop_
 _symmetry_equiv_pos_site_id
 _symmetry_equiv_pos_as_xyz
  1  'x, y, z'
loop_
 _atom_site_type_symbol
 _atom_site_label
 _atom_site_symmetry_multiplicity
 _atom_site_fract_x
 _atom_site_fract_y
 _atom_site_fract_z
 _atom_site_occupancy
 _atom_site_charge
  La  La1  1  0.515800  0.886800  0.968510  1.0  2.1743
  La  La2  1  0.521950  0.617550  0.019120  1.0  2.181
  La  La3  1  0.015800  0.613200  0.531490  1.0  2.1743
  La  La4  1  0.021950  0.882440  0.480880  1.0  2.181
  La  La5  1  0.484200  0.113200  0.031490  1.0  2.1745
  La  La6  1  0.478050  0.382440  0.980880  1.0  2.1815
  La  La7  1  0.984200  0.386800  0.468510  1.0  2.1748
  La  La8  1  0.978050  0.117550  0.519120  1.0  2.1806
  H  H9  1  0.486700  0.537300  0.840000  1.0  0.096
  H  H10  1  0.307700  0.079900  0.322800  1.0  0.12
  H  H11  1  0.396100  0.026200  0.227500  1.0  0.1171
  H  H12  1  0.239200  0.153900  0.763500  1.0  0.1316
  H  H13  1  0.421500  0.467900  0.751600  1.0  0.1252
  H  H14  1  0.331600  0.410600  0.657300  1.0  0.126
  H  H15  1  0.464500  0.958800  0.140000  1.0  0.0943
  H  H16  1  0.217200  0.104900  0.401200  1.0  0.1087
  H  H17  1  0.328200  0.869300  0.794500  1.0  0.1247
  H  H18  1  0.315400  0.125300  0.840000  1.0  0.1245
  H  H19  1  0.394900  0.727200  0.837400  1.0  0.1297
  H  H20  1  0.139600  0.936300  0.613300  1.0  0.1276
  H  H21  1  0.397400  0.765800  0.151000  1.0  0.1269
  H  H22  1  0.160500  0.160200  0.687300  1.0  0.1022
  H  H23  1  0.242600  0.380800  0.578700  1.0  0.1189
  H  H24  1  0.202400  0.886400  0.369300  1.0  0.1301
  H  H25  1  0.383200  0.080900  0.902400  1.0  0.1058
  H  H26  1  0.196400  0.599100  0.621400  1.0  0.1237
  H  H27  1  0.986700  0.962700  0.660000  1.0  0.0955
  H  H28  1  0.807700  0.420100  0.177200  1.0  0.1201
  H  H29  1  0.896100  0.473800  0.272500  1.0  0.1186
  H  H30  1  0.739200  0.346100  0.736500  1.0  0.131
  H  H31  1  0.921500  0.032100  0.748400  1.0  0.1246
  H  H32  1  0.831600  0.089400  0.842700  1.0  0.1261
  H  H33  1  0.964500  0.541200  0.360000  1.0  0.0944
  H  H34  1  0.717200  0.395100  0.098800  1.0  0.108
  H  H35  1  0.828200  0.630700  0.705500  1.0  0.1247
  H  H36  1  0.815400  0.374700  0.660000  1.0  0.1242
  H  H37  1  0.894900  0.772800  0.662600  1.0  0.1301
  H  H38  1  0.639600  0.563700  0.886700  1.0  0.1282
  H  H39  1  0.897400  0.734200  0.349000  1.0  0.127
  H  H40  1  0.660500  0.339800  0.812700  1.0  0.1022
  H  H41  1  0.742600  0.119200  0.921300  1.0  0.1189
  H  H42  1  0.702400  0.613600  0.130700  1.0  0.1299
  H  H43  1  0.883200  0.419100  0.597600  1.0  0.1056
  H  H44  1  0.696400  0.900900  0.878600  1.0  0.1238
  H  H45  1  0.513300  0.462700  0.160000  1.0  0.0956
  H  H46  1  0.692300  0.920100  0.677200  1.0  0.1191
  H  H47  1  0.603900  0.973800  0.772500  1.0  0.1175
  H  H48  1  0.760800  0.846100  0.236500  1.0  0.131
  H  H49  1  0.578500  0.532100  0.248400  1.0  0.1247
  H  H50  1  0.668400  0.589400  0.342700  1.0  0.1263
  H  H51  1  0.535500  0.041200  0.860000  1.0  0.0943
  H  H52  1  0.782800  0.895100  0.598800  1.0  0.1075
  H  H53  1  0.671800  0.130700  0.205500  1.0  0.1248
  H  H54  1  0.684600  0.874700  0.160000  1.0  0.1244
  H  H55  1  0.605100  0.272800  0.162600  1.0  0.1299
  H  H56  1  0.860400  0.063700  0.386700  1.0  0.1279
  H  H57  1  0.602600  0.234200  0.849000  1.0  0.1268
  H  H58  1  0.839500  0.839800  0.312700  1.0  0.1025
  H  H59  1  0.757400  0.619200  0.421300  1.0  0.1198
  H  H60  1  0.797600  0.113600  0.630700  1.0  0.1302
  H  H61  1  0.616800  0.919100  0.097600  1.0  0.1059
  H  H62  1  0.803600  0.400900  0.378600  1.0  0.1242
  H  H63  1  0.013300  0.037300  0.340000  1.0  0.0959
  H  H64  1  0.192300  0.579900  0.822800  1.0  0.1203
  H  H65  1  0.103900  0.526200  0.727500  1.0  0.1175
  H  H66  1  0.260800  0.653900  0.263500  1.0  0.1316
  H  H67  1  0.078500  0.967900  0.251600  1.0  0.1242
  H  H68  1  0.168400  0.910600  0.157300  1.0  0.1249
  H  H69  1  0.035500  0.458800  0.640000  1.0  0.0942
  H  H70  1  0.282800  0.604900  0.901200  1.0  0.1091
  H  H71  1  0.171800  0.369300  0.294500  1.0  0.1248
  H  H72  1  0.184600  0.625300  0.340000  1.0  0.1247
  H  H73  1  0.105100  0.227200  0.337400  1.0  0.1299
  H  H74  1  0.360400  0.436300  0.113300  1.0  0.1271
  H  H75  1  0.102600  0.265800  0.651000  1.0  0.1269
  H  H76  1  0.339500  0.660200  0.187300  1.0  0.1023
  H  H77  1  0.257400  0.880800  0.078700  1.0  0.1192
  H  H78  1  0.297600  0.386400  0.869300  1.0  0.1307
  H  H79  1  0.116800  0.580900  0.402400  1.0  0.1057
  H  H80  1  0.303600  0.099100  0.121400  1.0  0.1237
  C  C81  1  0.492000  0.684100  0.904100  1.0  0.7166
  C  C82  1  0.448900  0.639100  0.847500  1.0  -0.1683
  C  C83  1  0.455200  0.561400  0.821600  1.0  -0.0325
  C  C84  1  0.355900  0.937900  0.242700  1.0  0.0427
  C  C85  1  0.285900  0.041200  0.331200  1.0  -0.0461
  C  C86  1  0.435600  0.855500  0.135300  1.0  -0.1495
  C  C87  1  0.396000  0.974400  0.212600  1.0  -0.0791
  C  C88  1  0.219300  0.110700  0.733900  1.0  -0.137
  C  C89  1  0.415300  0.519300  0.768800  1.0  -0.1111
  C  C90  1  0.282100  0.024300  0.779100  1.0  0.0539
  C  C91  1  0.304200  0.448100  0.650600  1.0  -0.0476
  C  C92  1  0.141200  0.050000  0.643000  1.0  -0.1538
  C  C93  1  0.206500  0.978000  0.688300  1.0  -0.2219
  C  C94  1  0.436500  0.933700  0.159500  1.0  -0.0466
  C  C95  1  0.305800  0.968000  0.297000  1.0  0.06
  C  C96  1  0.236000  0.041500  0.734600  1.0  0.0756
  C  C97  1  0.366200  0.555000  0.742200  1.0  0.0153
  C  C98  1  0.232200  0.056000  0.378800  1.0  -0.0377
  C  C99  1  0.327000  0.920200  0.803500  1.0  0.0207
  C  C100  1  0.209400  0.486700  0.591800  1.0  -0.1581
  C  C101  1  0.318400  0.074400  0.830700  1.0  -0.1003
  C  C102  1  0.400300  0.675700  0.820800  1.0  -0.0053
  C  C103  1  0.159100  0.979700  0.642800  1.0  -0.0088
  C  C104  1  0.397100  0.817500  0.165700  1.0  -0.04
  C  C105  1  0.315900  0.522200  0.687900  1.0  0.0619
  C  C106  1  0.200700  0.998800  0.393300  1.0  -0.1452
  C  C107  1  0.358400  0.858700  0.218400  1.0  -0.2667
  C  C108  1  0.364300  0.970200  0.854300  1.0  -0.1536
  C  C109  1  0.172100  0.114000  0.688100  1.0  -0.015
  C  C110  1  0.138500  0.012900  0.441600  1.0  0.7574
  C  C111  1  0.287900  0.948400  0.766500  1.0  -0.2524
  C  C112  1  0.088100  0.059900  0.596900  1.0  0.743
  C  C113  1  0.360800  0.633100  0.769300  1.0  -0.2188
  C  C114  1  0.274000  0.576900  0.675400  1.0  -0.1582
  C  C115  1  0.273300  0.911900  0.312700  1.0  -0.2486
  C  C116  1  0.146700  0.470200  0.544700  1.0  0.6758
  C  C117  1  0.251000  0.430400  0.603300  1.0  -0.0401
  C  C118  1  0.222000  0.925100  0.360000  1.0  0.0088
  C  C119  1  0.359100  0.047500  0.868000  1.0  -0.0663
  C  C120  1  0.411600  0.944000  0.895100  1.0  0.7184
  C  C121  1  0.222300  0.561200  0.628500  1.0  -0.0078
  C  C122  1  0.473900  0.812900  0.076100  1.0  0.7395
  C  C123  1  0.992000  0.815900  0.595900  1.0  0.7135
  C  C124  1  0.948900  0.860900  0.652500  1.0  -0.1673
  C  C125  1  0.955200  0.938600  0.678400  1.0  -0.0331
  C  C126  1  0.855900  0.562100  0.257300  1.0  0.0418
  C  C127  1  0.785900  0.458800  0.168800  1.0  -0.0423
  C  C128  1  0.935600  0.644500  0.364700  1.0  -0.1485
  C  C129  1  0.896000  0.525600  0.287400  1.0  -0.0786
  C  C130  1  0.719300  0.389300  0.766100  1.0  -0.1363
  C  C131  1  0.915300  0.980700  0.731200  1.0  -0.1105
  C  C132  1  0.782100  0.475700  0.720900  1.0  0.0538
  C  C133  1  0.804200  0.051900  0.849400  1.0  -0.0564
  C  C134  1  0.641200  0.450000  0.857000  1.0  -0.1562
  C  C135  1  0.706500  0.522000  0.811700  1.0  -0.2234
  C  C136  1  0.936500  0.566300  0.340500  1.0  -0.0464
  C  C137  1  0.805800  0.532000  0.203000  1.0  0.064
  C  C138  1  0.736000  0.458500  0.765400  1.0  0.0761
  C  C139  1  0.866200  0.945000  0.757800  1.0  0.0178
  C  C140  1  0.732200  0.444000  0.121200  1.0  -0.0369
  C  C141  1  0.827000  0.579800  0.696500  1.0  0.0185
  C  C142  1  0.709400  0.013300  0.908200  1.0  -0.157
  C  C143  1  0.818400  0.425600  0.669300  1.0  -0.0984
  C  C144  1  0.900300  0.824300  0.679200  1.0  -0.0046
  C  C145  1  0.659100  0.520300  0.857200  1.0  -0.01
  C  C146  1  0.897100  0.682500  0.334300  1.0  -0.0421
  C  C147  1  0.815900  0.977800  0.812100  1.0  0.0663
  C  C148  1  0.700700  0.501200  0.106700  1.0  -0.1403
  C  C149  1  0.858400  0.641300  0.281600  1.0  -0.2666
  C  C150  1  0.864300  0.529800  0.645700  1.0  -0.1531
  C  C151  1  0.672100  0.386000  0.811900  1.0  -0.0145
  C  C152  1  0.638500  0.487100  0.058400  1.0  0.7587
  C  C153  1  0.787900  0.551600  0.733500  1.0  -0.2517
  C  C154  1  0.588100  0.440100  0.903100  1.0  0.7433
  C  C155  1  0.860800  0.866900  0.730700  1.0  -0.2205
  C  C156  1  0.774000  0.923100  0.824600  1.0  -0.1617
  C  C157  1  0.773300  0.588100  0.187300  1.0  -0.245
  C  C158  1  0.646700  0.029800  0.955300  1.0  0.6768
  C  C159  1  0.751000  0.069600  0.896700  1.0  -0.0461
  C  C160  1  0.722000  0.574900  0.140000  1.0  0.0053
  C  C161  1  0.859100  0.452500  0.632000  1.0  -0.0654
  C  C162  1  0.911600  0.556000  0.604900  1.0  0.7171
  C  C163  1  0.722300  0.938800  0.871500  1.0  -0.0053
  C  C164  1  0.973900  0.687100  0.423900  1.0  0.7392
  C  C165  1  0.508000  0.315900  0.095900  1.0  0.7161
  C  C166  1  0.551100  0.360900  0.152500  1.0  -0.1691
  C  C167  1  0.544800  0.438600  0.178400  1.0  -0.0321
  C  C168  1  0.644100  0.062100  0.757300  1.0  0.0412
  C  C169  1  0.714100  0.958800  0.668800  1.0  -0.0448
  C  C170  1  0.564400  0.144500  0.864700  1.0  -0.1484
  C  C171  1  0.604000  0.025600  0.787400  1.0  -0.0786
  C  C172  1  0.780700  0.889300  0.266100  1.0  -0.1367
  C  C173  1  0.584700  0.480700  0.231200  1.0  -0.1113
  C  C174  1  0.717900  0.975700  0.220900  1.0  0.0531
  C  C175  1  0.695800  0.551900  0.349400  1.0  -0.0489
  C  C176  1  0.858800  0.950000  0.357000  1.0  -0.1564
  C  C177  1  0.793500  0.022000  0.311700  1.0  -0.2239
  C  C178  1  0.563500  0.066300  0.840500  1.0  -0.0459
  C  C179  1  0.694200  0.032000  0.703000  1.0  0.0611
  C  C180  1  0.764000  0.958500  0.265400  1.0  0.077
  C  C181  1  0.633800  0.445000  0.257800  1.0  0.0164
  C  C182  1  0.767800  0.944000  0.621200  1.0  -0.0385
  C  C183  1  0.673000  0.079800  0.196500  1.0  0.0187
  C  C184  1  0.790600  0.513300  0.408200  1.0  -0.1575
  C  C185  1  0.681600  0.925600  0.169300  1.0  -0.0978
  C  C186  1  0.599700  0.324300  0.179200  1.0  -0.0036
  C  C187  1  0.840900  0.020300  0.357200  1.0  -0.0098
  C  C188  1  0.602900  0.182500  0.834300  1.0  -0.0419
  C  C189  1  0.684100  0.477800  0.312100  1.0  0.0611
  C  C190  1  0.799300  0.001200  0.606700  1.0  -0.1472
  C  C191  1  0.641600  0.141300  0.781600  1.0  -0.2669
  C  C192  1  0.635700  0.029800  0.145700  1.0  -0.1526
  C  C193  1  0.827900  0.886000  0.311900  1.0  -0.0145
  C  C194  1  0.861500  0.987100  0.558400  1.0  0.7409
  C  C195  1  0.712100  0.051600  0.233500  1.0  -0.2521
  C  C196  1  0.911900  0.940100  0.403100  1.0  0.7438
  C  C197  1  0.639200  0.366900  0.230700  1.0  -0.2202
  C  C198  1  0.726000  0.423100  0.324600  1.0  -0.1567
  C  C199  1  0.726700  0.088100  0.687300  1.0  -0.2465
  C  C200  1  0.853300  0.529800  0.455300  1.0  0.6757
  C  C201  1  0.749000  0.569600  0.396700  1.0  -0.0431
  C  C202  1  0.778000  0.074900  0.640000  1.0  0.008
  C  C203  1  0.640900  0.952500  0.132000  1.0  -0.066
  C  C204  1  0.588400  0.056000  0.104900  1.0  0.7175
  C  C205  1  0.777700  0.438800  0.371500  1.0  -0.0042
  C  C206  1  0.526100  0.187100  0.923900  1.0  0.7399
  C  C207  1  0.008000  0.184100  0.404100  1.0  0.7137
  C  C208  1  0.051100  0.139100  0.347500  1.0  -0.169
  C  C209  1  0.044800  0.061400  0.321600  1.0  -0.0309
  C  C210  1  0.144100  0.437900  0.742700  1.0  0.0429
  C  C211  1  0.214100  0.541200  0.831200  1.0  -0.0427
  C  C212  1  0.064400  0.355500  0.635300  1.0  -0.1505
  C  C213  1  0.104000  0.474400  0.712600  1.0  -0.0786
  C  C214  1  0.280700  0.610700  0.233900  1.0  -0.1372
  C  C215  1  0.084700  0.019300  0.268800  1.0  -0.1099
  C  C216  1  0.217900  0.524300  0.279100  1.0  0.0532
  C  C217  1  0.195800  0.948100  0.150600  1.0  -0.0559
  C  C218  1  0.358800  0.550000  0.143000  1.0  -0.1541
  C  C219  1  0.293500  0.478000  0.188300  1.0  -0.2221
  C  C220  1  0.063500  0.433700  0.659500  1.0  -0.046
  C  C221  1  0.194200  0.468000  0.797000  1.0  0.0652
  C  C222  1  0.264000  0.541500  0.234600  1.0  0.0767
  C  C223  1  0.133800  0.055000  0.242200  1.0  0.0143
  C  C224  1  0.267800  0.556000  0.878800  1.0  -0.0423
  C  C225  1  0.173000  0.420200  0.303500  1.0  0.0212
  C  C226  1  0.290600  0.986700  0.091800  1.0  -0.1591
  C  C227  1  0.181600  0.574400  0.330700  1.0  -0.1002
  C  C228  1  0.099700  0.175700  0.320800  1.0  -0.0041
  C  C229  1  0.340900  0.479700  0.142800  1.0  -0.0095
  C  C230  1  0.102900  0.317500  0.665700  1.0  -0.0398
  C  C231  1  0.184100  0.022200  0.187900  1.0  0.0659
  C  C232  1  0.299300  0.498800  0.893300  1.0  -0.1415
  C  C233  1  0.141600  0.358700  0.718400  1.0  -0.2668
  C  C234  1  0.135700  0.470200  0.354300  1.0  -0.1535
  C  C235  1  0.327900  0.614000  0.188100  1.0  -0.0144
  C  C236  1  0.361500  0.512900  0.941600  1.0  0.7389
  C  C237  1  0.212100  0.448400  0.266500  1.0  -0.2528
  C  C238  1  0.411900  0.559900  0.096900  1.0  0.7432
  C  C239  1  0.139200  0.133100  0.269300  1.0  -0.2191
  C  C240  1  0.226000  0.076900  0.175400  1.0  -0.1632
  C  C241  1  0.226700  0.411900  0.812700  1.0  -0.2473
  C  C242  1  0.353300  0.970200  0.044700  1.0  0.6759
  C  C243  1  0.249000  0.930400  0.103300  1.0  -0.0455
  C  C244  1  0.278000  0.425100  0.860000  1.0  0.0081
  C  C245  1  0.140900  0.547500  0.368000  1.0  -0.0674
  C  C246  1  0.088400  0.444000  0.395100  1.0  0.7179
  C  C247  1  0.277700  0.061200  0.128500  1.0  -0.0081
  C  C248  1  0.026100  0.312900  0.576100  1.0  0.7402
  S  S249  1  0.237560  0.896540  0.698460  1.0  1.1564
  S  S250  1  0.304000  0.822830  0.262970  1.0  1.1816
  S  S251  1  0.293460  0.666810  0.729530  1.0  1.1581
  S  S252  1  0.737560  0.603460  0.801540  1.0  1.1557
  S  S253  1  0.804000  0.677170  0.237030  1.0  1.1796
  S  S254  1  0.793460  0.833190  0.770470  1.0  1.1577
  S  S255  1  0.762440  0.103460  0.301540  1.0  1.1552
  S  S256  1  0.696000  0.177170  0.737030  1.0  1.1792
  S  S257  1  0.706540  0.333190  0.270470  1.0  1.1573
  S  S258  1  0.262440  0.396540  0.198460  1.0  1.1565
  S  S259  1  0.196000  0.322830  0.762970  1.0  1.1813
  S  S260  1  0.206540  0.166810  0.229530  1.0  1.1575
  O  O261  1  0.516700  0.845900  0.051680  1.0  -0.6075
  O  O262  1  0.529300  0.650400  0.930660  1.0  -0.6613
  O  O263  1  0.404300  0.878300  0.890100  1.0  -0.6423
  O  O264  1  0.487600  0.753800  0.920400  1.0  -0.7035
  O  O265  1  0.108200  0.076700  0.464000  1.0  -0.6791
  O  O266  1  0.462100  0.742300  0.054700  1.0  -0.7086
  O  O267  1  0.085800  0.122100  0.594200  1.0  -0.6196
  O  O268  1  0.222400  0.696300  0.764500  1.0  -0.5931
  O  O269  1  0.236900  0.779200  0.230800  1.0  -0.602
  O  O270  1  0.042300  0.008200  0.565900  1.0  -0.7714
  O  O271  1  0.333500  0.713400  0.704900  1.0  -0.5276
  O  O272  1  0.126100  0.960700  0.458800  1.0  -0.7129
  O  O273  1  0.170200  0.857700  0.709000  1.0  -0.5728
  O  O274  1  0.123000  0.404400  0.518200  1.0  -0.6624
  O  O275  1  0.356200  0.788800  0.292000  1.0  -0.5665
  O  O276  1  0.293300  0.854500  0.653000  1.0  -0.5236
  O  O277  1  0.460700  0.990300  0.932600  1.0  -0.7265
  O  O278  1  0.125900  0.530100  0.533900  1.0  -0.6575
  O  O279  1  0.016700  0.654100  0.448320  1.0  -0.6075
  O  O280  1  0.029300  0.849600  0.569340  1.0  -0.6628
  O  O281  1  0.904300  0.621700  0.609900  1.0  -0.6442
  O  O282  1  0.987600  0.746200  0.579600  1.0  -0.7062
  O  O283  1  0.608200  0.423300  0.036000  1.0  -0.6801
  O  O284  1  0.962100  0.757700  0.445300  1.0  -0.7087
  O  O285  1  0.585800  0.377900  0.905800  1.0  -0.6193
  O  O286  1  0.722400  0.803700  0.735500  1.0  -0.5953
  O  O287  1  0.736900  0.720800  0.269200  1.0  -0.6026
  O  O288  1  0.542300  0.491800  0.934100  1.0  -0.771
  O  O289  1  0.833500  0.786600  0.795100  1.0  -0.5286
  O  O290  1  0.626100  0.539300  0.041200  1.0  -0.7109
  O  O291  1  0.670200  0.642300  0.791000  1.0  -0.5729
  O  O292  1  0.623000  0.095600  0.981800  1.0  -0.6605
  O  O293  1  0.856200  0.711200  0.208000  1.0  -0.5577
  O  O294  1  0.793300  0.645500  0.847000  1.0  -0.524
  O  O295  1  0.960700  0.509700  0.567400  1.0  -0.7277
  O  O296  1  0.625900  0.969900  0.966100  1.0  -0.6567
  O  O297  1  0.483300  0.154100  0.948320  1.0  -0.6063
  O  O298  1  0.470700  0.349600  0.069340  1.0  -0.6622
  O  O299  1  0.595700  0.121700  0.109900  1.0  -0.6428
  O  O300  1  0.512400  0.246200  0.079600  1.0  -0.7063
  O  O301  1  0.891800  0.923300  0.536000  1.0  -0.6806
  O  O302  1  0.537900  0.257700  0.945300  1.0  -0.7099
  O  O303  1  0.914200  0.877900  0.405800  1.0  -0.6188
  O  O304  1  0.777600  0.303700  0.235500  1.0  -0.5979
  O  O305  1  0.763100  0.220800  0.769200  1.0  -0.6051
  O  O306  1  0.957700  0.991800  0.434100  1.0  -0.7721
  O  O307  1  0.666500  0.286600  0.295100  1.0  -0.5266
  O  O308  1  0.873900  0.039300  0.541200  1.0  -0.716
  O  O309  1  0.829800  0.142300  0.291000  1.0  -0.5742
  O  O310  1  0.877000  0.595600  0.481800  1.0  -0.6632
  O  O311  1  0.643800  0.211200  0.708000  1.0  -0.5648
  O  O312  1  0.706700  0.145500  0.347000  1.0  -0.5244
  O  O313  1  0.539300  0.009700  0.067400  1.0  -0.7316
  O  O314  1  0.874100  0.469900  0.466100  1.0  -0.6535
  O  O315  1  0.983300  0.345900  0.551680  1.0  -0.6062
  O  O316  1  0.970700  0.150400  0.430660  1.0  -0.6606
  O  O317  1  0.095700  0.378300  0.390100  1.0  -0.6414
  O  O318  1  0.012400  0.253800  0.420400  1.0  -0.7047
  O  O319  1  0.391800  0.576700  0.964000  1.0  -0.68
  O  O320  1  0.037900  0.242300  0.554700  1.0  -0.7085
  O  O321  1  0.414200  0.622100  0.094200  1.0  -0.6196
  O  O322  1  0.277600  0.196300  0.264500  1.0  -0.5976
  O  O323  1  0.263100  0.279200  0.730800  1.0  -0.6051
  O  O324  1  0.457700  0.508200  0.065900  1.0  -0.7724
  O  O325  1  0.166500  0.213400  0.204900  1.0  -0.5287
  O  O326  1  0.373900  0.460700  0.958800  1.0  -0.7164
  O  O327  1  0.329800  0.357700  0.209000  1.0  -0.5752
  O  O328  1  0.377000  0.904400  0.018200  1.0  -0.663
  O  O329  1  0.143800  0.288800  0.792000  1.0  -0.5559
  O  O330  1  0.206700  0.354500  0.153000  1.0  -0.5253
  O  O331  1  0.039300  0.490300  0.432600  1.0  -0.7294
  O  O332  1  0.374100  0.030100  0.033900  1.0  -0.6562
