# generated using pymatgen
data_Pr2H18C42(SO6)3
_symmetry_space_group_name_H-M   'P 1'
_cell_length_a   14.93510000
_cell_length_b   19.03320000
_cell_length_c   30.34110000
_cell_angle_alpha   96.82390000
_cell_angle_beta   90.00000000
_cell_angle_gamma   113.10000000
_symmetry_Int_Tables_number   1
_chemical_formula_structural   Pr2H18C42(SO6)3
_chemical_formula_sum   'Pr8 H72 C168 S12 O72'
_cell_volume   7866.85021337
_cell_formula_units_Z   4
loop_
 _symmetry_equiv_pos_site_id
 _symmetry_equiv_pos_as_xyz
  1  'x, y, z'
loop_
 _atom_site_type_symbol
 _atom_site_label
 _atom_site_symmetry_multiplicity
 _atom_site_fract_x
 _atom_site_fract_y
 _atom_site_fract_z
 _atom_site_occupancy
 _atom_site_charge
  Pr  Pr1  1  0.375760  0.829610  0.158350  1.0  2.2052
  Pr  Pr2  1  0.378480  0.586420  0.644500  1.0  2.168
  Pr  Pr3  1  0.453850  0.829610  0.658350  1.0  2.2056
  Pr  Pr4  1  0.207940  0.586420  0.144500  1.0  2.1572
  Pr  Pr5  1  0.546150  0.170390  0.341650  1.0  2.2067
  Pr  Pr6  1  0.792060  0.413580  0.855500  1.0  2.1686
  Pr  Pr7  1  0.624240  0.170390  0.841650  1.0  2.2068
  Pr  Pr8  1  0.621520  0.413580  0.355500  1.0  2.1583
  H  H9  1  0.368200  0.068200  0.236400  1.0  0.1042
  H  H10  1  0.237100  0.335800  0.103900  1.0  0.1323
  H  H11  1  0.962500  0.626400  0.145700  1.0  0.1364
  H  H12  1  0.329200  0.058400  0.103300  1.0  0.1279
  H  H13  1  0.302600  0.298600  0.248400  1.0  0.1149
  H  H14  1  0.339200  0.179600  0.248300  1.0  0.1288
  H  H15  1  0.236700  0.599800  0.514600  1.0  0.1116
  H  H16  1  0.396600  0.810600  0.311400  1.0  0.1328
  H  H17  1  0.455100  0.805600  0.505400  1.0  0.1357
  H  H18  1  0.264700  0.402400  0.236800  1.0  0.1115
  H  H19  1  0.179900  0.592600  0.442400  1.0  0.1315
  H  H20  1  0.541500  0.575000  0.138500  1.0  0.1309
  H  H21  1  0.162300  0.610200  0.286800  1.0  0.112
  H  H22  1  0.153700  0.596200  0.361800  1.0  0.1317
  H  H23  1  0.578500  0.799600  0.155100  1.0  0.1073
  H  H24  1  0.746000  0.838200  0.156100  1.0  0.13
  H  H25  1  0.075800  0.859400  0.162500  1.0  0.1194
  H  H26  1  0.921400  0.859400  0.161800  1.0  0.1315
  H  H27  1  0.700000  0.068200  0.736400  1.0  0.1042
  H  H28  1  0.098700  0.335800  0.603900  1.0  0.1326
  H  H29  1  0.663900  0.626400  0.645700  1.0  0.1364
  H  H30  1  0.729200  0.058400  0.603300  1.0  0.1281
  H  H31  1  0.996000  0.298600  0.748400  1.0  0.1151
  H  H32  1  0.840400  0.179600  0.748300  1.0  0.1288
  H  H33  1  0.363100  0.599800  0.014600  1.0  0.1116
  H  H34  1  0.414000  0.810600  0.811400  1.0  0.1334
  H  H35  1  0.350500  0.805600  0.005400  1.0  0.1359
  H  H36  1  0.137700  0.402400  0.736800  1.0  0.1116
  H  H37  1  0.412700  0.592600  0.942400  1.0  0.1319
  H  H38  1  0.033500  0.575000  0.638500  1.0  0.1308
  H  H39  1  0.447900  0.610200  0.786800  1.0  0.1119
  H  H40  1  0.442500  0.596200  0.861800  1.0  0.1319
  H  H41  1  0.221100  0.799600  0.655100  1.0  0.1066
  H  H42  1  0.092200  0.838200  0.656100  1.0  0.1304
  H  H43  1  0.783600  0.859400  0.662500  1.0  0.1199
  H  H44  1  0.938000  0.859400  0.661800  1.0  0.1312
  H  H45  1  0.300000  0.931800  0.263600  1.0  0.1039
  H  H46  1  0.901300  0.664200  0.396100  1.0  0.1327
  H  H47  1  0.336100  0.373600  0.354300  1.0  0.1365
  H  H48  1  0.270800  0.941600  0.396700  1.0  0.1287
  H  H49  1  0.004000  0.701400  0.251600  1.0  0.1151
  H  H50  1  0.159600  0.820400  0.251700  1.0  0.129
  H  H51  1  0.636900  0.400200  0.985400  1.0  0.1121
  H  H52  1  0.586000  0.189400  0.188600  1.0  0.1317
  H  H53  1  0.649500  0.194400  0.994600  1.0  0.1358
  H  H54  1  0.862300  0.597600  0.263200  1.0  0.111
  H  H55  1  0.587300  0.407400  0.057600  1.0  0.1318
  H  H56  1  0.966500  0.425000  0.361500  1.0  0.1311
  H  H57  1  0.552100  0.389800  0.213200  1.0  0.1125
  H  H58  1  0.557500  0.403800  0.138200  1.0  0.1316
  H  H59  1  0.778900  0.200400  0.344900  1.0  0.1069
  H  H60  1  0.907800  0.161800  0.343900  1.0  0.1297
  H  H61  1  0.216400  0.140600  0.337500  1.0  0.1198
  H  H62  1  0.062000  0.140600  0.338200  1.0  0.131
  H  H63  1  0.631800  0.931800  0.763600  1.0  0.104
  H  H64  1  0.762900  0.664200  0.896100  1.0  0.1326
  H  H65  1  0.037500  0.373600  0.854300  1.0  0.1371
  H  H66  1  0.670800  0.941600  0.896700  1.0  0.1285
  H  H67  1  0.697400  0.701400  0.751600  1.0  0.1153
  H  H68  1  0.660800  0.820400  0.751700  1.0  0.1288
  H  H69  1  0.763300  0.400200  0.485400  1.0  0.1122
  H  H70  1  0.603400  0.189400  0.688600  1.0  0.1321
  H  H71  1  0.544900  0.194400  0.494600  1.0  0.1355
  H  H72  1  0.735300  0.597600  0.763200  1.0  0.1112
  H  H73  1  0.820100  0.407400  0.557600  1.0  0.1316
  H  H74  1  0.458500  0.425000  0.861500  1.0  0.131
  H  H75  1  0.837700  0.389800  0.713200  1.0  0.1122
  H  H76  1  0.846300  0.403800  0.638200  1.0  0.1315
  H  H77  1  0.421500  0.200400  0.844900  1.0  0.1068
  H  H78  1  0.254000  0.161800  0.843900  1.0  0.1293
  H  H79  1  0.924200  0.140600  0.837500  1.0  0.1199
  H  H80  1  0.078600  0.140600  0.838200  1.0  0.1314
  C  C81  1  0.354260  0.088720  0.212210  1.0  -0.0124
  C  C82  1  0.368970  0.978940  0.162370  1.0  0.6893
  C  C83  1  0.250620  0.329040  0.132660  1.0  -0.0139
  C  C84  1  0.275140  0.692480  0.381050  1.0  0.0588
  C  C85  1  0.289600  0.690800  0.429140  1.0  0.0536
  C  C86  1  0.315830  0.186060  0.183160  1.0  0.0592
  C  C87  1  0.955220  0.673040  0.148820  1.0  -0.0288
  C  C88  1  0.351220  0.051440  0.169050  1.0  -0.1715
  C  C89  1  0.542390  0.682980  0.147950  1.0  -0.1281
  C  C90  1  0.331000  0.082000  0.132130  1.0  0.0034
  C  C91  1  0.352560  0.701920  0.517200  1.0  -0.155
  C  C92  1  0.279880  0.711360  0.291390  1.0  -0.1334
  C  C93  1  0.281080  0.716960  0.242400  1.0  0.7484
  C  C94  1  0.219710  0.446020  0.162730  1.0  0.6742
  C  C95  1  0.388120  0.701840  0.563150  1.0  0.7963
  C  C96  1  0.290110  0.306220  0.219720  1.0  -0.0774
  C  C97  1  0.314010  0.148620  0.140400  1.0  -0.2312
  C  C98  1  0.138340  0.747680  0.152640  1.0  0.7346
  C  C99  1  0.035360  0.742120  0.153540  1.0  -0.1262
  C  C100  1  0.336840  0.155480  0.219530  1.0  -0.0917
  C  C101  1  0.269880  0.638960  0.497750  1.0  -0.0195
  C  C102  1  0.349270  0.767140  0.320970  1.0  0.0214
  C  C103  1  0.246500  0.379600  0.169500  1.0  -0.1763
  C  C104  1  0.371110  0.753620  0.448480  1.0  -0.2449
  C  C105  1  0.862530  0.675060  0.148820  1.0  -0.2236
  C  C106  1  0.682680  0.653560  0.144750  1.0  -0.2012
  C  C107  1  0.434670  0.660260  0.149090  1.0  0.7288
  C  C108  1  0.345760  0.755920  0.365320  1.0  -0.2349
  C  C109  1  0.402720  0.761840  0.492730  1.0  -0.0203
  C  C110  1  0.266880  0.368160  0.212660  1.0  -0.0356
  C  C111  1  0.236310  0.633420  0.454310  1.0  -0.1231
  C  C112  1  0.294600  0.255800  0.183440  1.0  0.0583
  C  C113  1  0.275270  0.268740  0.140610  1.0  -0.2722
  C  C114  1  0.581100  0.627200  0.142900  1.0  -0.0024
  C  C115  1  0.208240  0.647480  0.307090  1.0  -0.0288
  C  C116  1  0.744690  0.731180  0.150810  1.0  0.0525
  C  C117  1  0.203310  0.637820  0.351800  1.0  -0.1305
  C  C118  1  0.849570  0.744140  0.153310  1.0  0.0586
  C  C119  1  0.605250  0.762700  0.152600  1.0  -0.0346
  C  C120  1  0.705560  0.786120  0.153600  1.0  -0.0945
  C  C121  1  0.021740  0.812880  0.158800  1.0  -0.0321
  C  C122  1  0.929570  0.813140  0.158500  1.0  -0.094
  C  C123  1  0.734460  0.088720  0.712210  1.0  -0.0132
  C  C124  1  0.609970  0.978940  0.662370  1.0  0.6914
  C  C125  1  0.078420  0.329040  0.632660  1.0  -0.0156
  C  C126  1  0.417340  0.692480  0.881050  1.0  0.0595
  C  C127  1  0.401200  0.690800  0.929140  1.0  0.0543
  C  C128  1  0.870230  0.186060  0.683160  1.0  0.0603
  C  C129  1  0.717820  0.673040  0.648820  1.0  -0.0286
  C  C130  1  0.700220  0.051440  0.669050  1.0  -0.1714
  C  C131  1  0.140590  0.682980  0.647950  1.0  -0.1278
  C  C132  1  0.751000  0.082000  0.632130  1.0  0.0034
  C  C133  1  0.349360  0.701920  0.017200  1.0  -0.1542
  C  C134  1  0.431480  0.711360  0.791390  1.0  -0.1349
  C  C135  1  0.435880  0.716960  0.742400  1.0  0.7493
  C  C136  1  0.226310  0.446020  0.662730  1.0  0.6748
  C  C137  1  0.313720  0.701840  0.063150  1.0  0.7819
  C  C138  1  0.016110  0.306220  0.719720  1.0  -0.0767
  C  C139  1  0.834610  0.148620  0.640400  1.0  -0.2308
  C  C140  1  0.609340  0.747680  0.652640  1.0  0.7358
  C  C141  1  0.706760  0.742120  0.653540  1.0  -0.1262
  C  C142  1  0.818640  0.155480  0.719530  1.0  -0.0933
  C  C143  1  0.369080  0.638960  0.997750  1.0  -0.0195
  C  C144  1  0.417870  0.767140  0.820970  1.0  0.02
  C  C145  1  0.133100  0.379600  0.669500  1.0  -0.1768
  C  C146  1  0.382510  0.753620  0.948480  1.0  -0.2455
  C  C147  1  0.812530  0.675060  0.648820  1.0  -0.2239
  C  C148  1  0.970880  0.653560  0.644750  1.0  -0.2018
  C  C149  1  0.225590  0.660260  0.649090  1.0  0.7133
  C  C150  1  0.410160  0.755920  0.865320  1.0  -0.2361
  C  C151  1  0.359120  0.761840  0.992730  1.0  -0.02
  C  C152  1  0.101280  0.368160  0.712660  1.0  -0.0353
  C  C153  1  0.397110  0.633420  0.954310  1.0  -0.1236
  C  C154  1  0.961200  0.255800  0.683440  1.0  0.0587
  C  C155  1  0.993470  0.268740  0.640610  1.0  -0.2701
  C  C156  1  0.046100  0.627200  0.642900  1.0  -0.0018
  C  C157  1  0.439240  0.647480  0.807090  1.0  -0.0293
  C  C158  1  0.986490  0.731180  0.650810  1.0  0.0535
  C  C159  1  0.434510  0.637820  0.851800  1.0  -0.1297
  C  C160  1  0.894570  0.744140  0.653310  1.0  0.0583
  C  C161  1  0.157450  0.762700  0.652600  1.0  -0.0346
  C  C162  1  0.080560  0.786120  0.653600  1.0  -0.0961
  C  C163  1  0.791140  0.812880  0.658800  1.0  -0.0309
  C  C164  1  0.883570  0.813140  0.658500  1.0  -0.0934
  C  C165  1  0.265540  0.911280  0.287790  1.0  -0.0127
  C  C166  1  0.390030  0.021060  0.337630  1.0  0.6882
  C  C167  1  0.921580  0.670960  0.367340  1.0  -0.0135
  C  C168  1  0.582660  0.307520  0.118950  1.0  0.0587
  C  C169  1  0.598800  0.309200  0.070860  1.0  0.0537
  C  C170  1  0.129770  0.813940  0.316840  1.0  0.059
  C  C171  1  0.282180  0.326960  0.351180  1.0  -0.0278
  C  C172  1  0.299780  0.948560  0.330950  1.0  -0.1696
  C  C173  1  0.859410  0.317020  0.352050  1.0  -0.1273
  C  C174  1  0.249000  0.918000  0.367870  1.0  0.0021
  C  C175  1  0.650640  0.298080  0.982800  1.0  -0.155
  C  C176  1  0.568520  0.288640  0.208610  1.0  -0.1357
  C  C177  1  0.564120  0.283040  0.257600  1.0  0.7451
  C  C178  1  0.773690  0.553980  0.337270  1.0  0.6741
  C  C179  1  0.686280  0.298160  0.936850  1.0  0.7958
  C  C180  1  0.983890  0.693780  0.280280  1.0  -0.0759
  C  C181  1  0.165390  0.851380  0.359600  1.0  -0.2293
  C  C182  1  0.390660  0.252320  0.347360  1.0  0.721
  C  C183  1  0.293240  0.257880  0.346460  1.0  -0.1262
  C  C184  1  0.181360  0.844520  0.280470  1.0  -0.0909
  C  C185  1  0.630920  0.361040  0.002250  1.0  -0.0185
  C  C186  1  0.582130  0.232860  0.179030  1.0  0.0205
  C  C187  1  0.866900  0.620400  0.330500  1.0  -0.177
  C  C188  1  0.617490  0.246380  0.051520  1.0  -0.2447
  C  C189  1  0.187470  0.324940  0.351180  1.0  -0.2216
  C  C190  1  0.029120  0.346440  0.355250  1.0  -0.2028
  C  C191  1  0.774410  0.339740  0.350910  1.0  0.7277
  C  C192  1  0.589840  0.244080  0.134680  1.0  -0.2343
  C  C193  1  0.640880  0.238160  0.007270  1.0  -0.0206
  C  C194  1  0.898720  0.631840  0.287340  1.0  -0.0354
  C  C195  1  0.602890  0.366580  0.045690  1.0  -0.1238
  C  C196  1  0.038800  0.744200  0.316560  1.0  0.0584
  C  C197  1  0.006530  0.731260  0.359390  1.0  -0.2699
  C  C198  1  0.953900  0.372800  0.357100  1.0  -0.0025
  C  C199  1  0.560760  0.352520  0.192910  1.0  -0.0267
  C  C200  1  0.013510  0.268820  0.349190  1.0  0.0528
  C  C201  1  0.565490  0.362180  0.148200  1.0  -0.1302
  C  C202  1  0.105430  0.255860  0.346690  1.0  0.0594
  C  C203  1  0.842550  0.237300  0.347400  1.0  -0.0332
  C  C204  1  0.919440  0.213880  0.346400  1.0  -0.096
  C  C205  1  0.208860  0.187120  0.341200  1.0  -0.0294
  C  C206  1  0.116430  0.186860  0.341500  1.0  -0.0925
  C  C207  1  0.645740  0.911280  0.787790  1.0  -0.0131
  C  C208  1  0.631030  0.021060  0.837630  1.0  0.6905
  C  C209  1  0.749380  0.670960  0.867340  1.0  -0.0145
  C  C210  1  0.724860  0.307520  0.618950  1.0  0.0588
  C  C211  1  0.710400  0.309200  0.570860  1.0  0.0545
  C  C212  1  0.684170  0.813940  0.816840  1.0  0.061
  C  C213  1  0.044780  0.326960  0.851180  1.0  -0.0286
  C  C214  1  0.648780  0.948560  0.830950  1.0  -0.1695
  C  C215  1  0.457610  0.317020  0.852050  1.0  -0.1281
  C  C216  1  0.669000  0.918000  0.867870  1.0  0.0026
  C  C217  1  0.647440  0.298080  0.482800  1.0  -0.1546
  C  C218  1  0.720120  0.288640  0.708610  1.0  -0.135
  C  C219  1  0.718920  0.283040  0.757600  1.0  0.7449
  C  C220  1  0.780290  0.553980  0.837270  1.0  0.6746
  C  C221  1  0.611880  0.298160  0.436850  1.0  0.7823
  C  C222  1  0.709890  0.693780  0.780280  1.0  -0.0746
  C  C223  1  0.685990  0.851380  0.859600  1.0  -0.23
  C  C224  1  0.861660  0.252320  0.847360  1.0  0.7203
  C  C225  1  0.964640  0.257880  0.846460  1.0  -0.126
  C  C226  1  0.663160  0.844520  0.780470  1.0  -0.0921
  C  C227  1  0.730120  0.361040  0.502250  1.0  -0.0187
  C  C228  1  0.650730  0.232860  0.679030  1.0  0.0198
  C  C229  1  0.753500  0.620400  0.830500  1.0  -0.176
  C  C230  1  0.628890  0.246380  0.551520  1.0  -0.2455
  C  C231  1  0.137470  0.324940  0.851180  1.0  -0.2218
  C  C232  1  0.317320  0.346440  0.855250  1.0  -0.2033
  C  C233  1  0.565330  0.339740  0.850910  1.0  0.7128
  C  C234  1  0.654240  0.244080  0.634680  1.0  -0.2349
  C  C235  1  0.597280  0.238160  0.507270  1.0  -0.0199
  C  C236  1  0.733120  0.631840  0.787340  1.0  -0.0352
  C  C237  1  0.763690  0.366580  0.545690  1.0  -0.1241
  C  C238  1  0.705400  0.744200  0.816560  1.0  0.0599
  C  C239  1  0.724730  0.731260  0.859390  1.0  -0.2685
  C  C240  1  0.418900  0.372800  0.857100  1.0  -0.0018
  C  C241  1  0.791760  0.352520  0.692910  1.0  -0.0276
  C  C242  1  0.255310  0.268820  0.849190  1.0  0.0526
  C  C243  1  0.796690  0.362180  0.648200  1.0  -0.1291
  C  C244  1  0.150430  0.255860  0.846690  1.0  0.0593
  C  C245  1  0.394750  0.237300  0.847400  1.0  -0.0338
  C  C246  1  0.294440  0.213880  0.846400  1.0  -0.0977
  C  C247  1  0.978260  0.187120  0.841200  1.0  -0.0296
  C  C248  1  0.070430  0.186860  0.841500  1.0  -0.0925
  S  S249  1  0.283650  0.196780  0.099910  1.0  1.1597
  S  S250  1  0.749280  0.594760  0.144110  1.0  1.1601
  S  S251  1  0.431220  0.814780  0.408730  1.0  1.1731
  S  S252  1  0.913130  0.196780  0.599910  1.0  1.1604
  S  S253  1  0.845480  0.594760  0.644110  1.0  1.1603
  S  S254  1  0.383560  0.814780  0.908730  1.0  1.1719
  S  S255  1  0.086870  0.803220  0.400090  1.0  1.157
  S  S256  1  0.154520  0.405240  0.355890  1.0  1.1605
  S  S257  1  0.616440  0.185220  0.091270  1.0  1.1716
  S  S258  1  0.716350  0.803220  0.900090  1.0  1.1575
  S  S259  1  0.250720  0.405240  0.855890  1.0  1.1604
  S  S260  1  0.568780  0.185220  0.591270  1.0  1.1709
  O  O261  1  0.393600  0.956880  0.196630  1.0  -0.6749
  O  O262  1  0.329120  0.781240  0.229970  1.0  -0.7223
  O  O263  1  0.446280  0.765160  0.583720  1.0  -0.7147
  O  O264  1  0.357390  0.637380  0.577170  1.0  -0.714
  O  O265  1  0.358170  0.941900  0.124240  1.0  -0.6552
  O  O266  1  0.198690  0.452760  0.123140  1.0  -0.6897
  O  O267  1  0.233760  0.655120  0.217630  1.0  -0.7404
  O  O268  1  0.401530  0.712380  0.154600  1.0  -0.8388
  O  O269  1  0.220330  0.492260  0.195430  1.0  -0.6127
  O  O270  1  0.362880  0.227560  0.071520  1.0  -0.5426
  O  O271  1  0.205550  0.812220  0.163040  1.0  -0.7019
  O  O272  1  0.379480  0.590420  0.145850  1.0  -0.6217
  O  O273  1  0.148820  0.685640  0.140520  1.0  -0.7708
  O  O274  1  0.190330  0.150060  0.078540  1.0  -0.5219
  O  O275  1  0.737360  0.547320  0.102270  1.0  -0.5544
  O  O276  1  0.524790  0.813180  0.401400  1.0  -0.5052
  O  O277  1  0.427590  0.889380  0.418070  1.0  -0.5456
  O  O278  1  0.733370  0.556740  0.183120  1.0  -0.5496
  O  O279  1  0.563280  0.956880  0.696630  1.0  -0.6754
  O  O280  1  0.452120  0.781240  0.729970  1.0  -0.7248
  O  O281  1  0.318880  0.765160  0.083720  1.0  -0.7157
  O  O282  1  0.279990  0.637380  0.077170  1.0  -0.7127
  O  O283  1  0.583730  0.941900  0.624240  1.0  -0.6533
  O  O284  1  0.254070  0.452760  0.623140  1.0  -0.6909
  O  O285  1  0.421360  0.655120  0.717630  1.0  -0.7403
  O  O286  1  0.310850  0.712380  0.654600  1.0  -0.8408
  O  O287  1  0.271930  0.492260  0.695430  1.0  -0.6125
  O  O288  1  0.864680  0.227560  0.571520  1.0  -0.5416
  O  O289  1  0.606670  0.812220  0.663040  1.0  -0.7015
  O  O290  1  0.210940  0.590420  0.645850  1.0  -0.6219
  O  O291  1  0.536820  0.685640  0.640520  1.0  -0.7704
  O  O292  1  0.959730  0.150060  0.578540  1.0  -0.5223
  O  O293  1  0.809960  0.547320  0.602270  1.0  -0.5547
  O  O294  1  0.288390  0.813180  0.901400  1.0  -0.5026
  O  O295  1  0.461790  0.889380  0.918070  1.0  -0.5454
  O  O296  1  0.823370  0.556740  0.683120  1.0  -0.5495
  O  O297  1  0.436720  0.043120  0.303370  1.0  -0.6751
  O  O298  1  0.547880  0.218760  0.270030  1.0  -0.7237
  O  O299  1  0.681120  0.234840  0.916280  1.0  -0.7155
  O  O300  1  0.720010  0.362620  0.922830  1.0  -0.7139
  O  O301  1  0.416270  0.058100  0.375760  1.0  -0.6524
  O  O302  1  0.745930  0.547240  0.376860  1.0  -0.6881
  O  O303  1  0.578640  0.344880  0.282370  1.0  -0.7394
  O  O304  1  0.689150  0.287620  0.345400  1.0  -0.8387
  O  O305  1  0.728070  0.507740  0.304570  1.0  -0.6121
  O  O306  1  0.135320  0.772440  0.428480  1.0  -0.5419
  O  O307  1  0.393330  0.187780  0.336960  1.0  -0.7027
  O  O308  1  0.789060  0.409580  0.354150  1.0  -0.6221
  O  O309  1  0.463180  0.314360  0.359480  1.0  -0.7709
  O  O310  1  0.040270  0.849940  0.421460  1.0  -0.5199
  O  O311  1  0.190040  0.452680  0.397730  1.0  -0.5536
  O  O312  1  0.711610  0.186820  0.098600  1.0  -0.5055
  O  O313  1  0.538210  0.110620  0.081930  1.0  -0.545
  O  O314  1  0.176630  0.443260  0.316880  1.0  -0.551
  O  O315  1  0.606400  0.043120  0.803370  1.0  -0.6752
  O  O316  1  0.670880  0.218760  0.770030  1.0  -0.7233
  O  O317  1  0.553720  0.234840  0.416280  1.0  -0.7159
  O  O318  1  0.642610  0.362620  0.422830  1.0  -0.7137
  O  O319  1  0.641830  0.058100  0.875760  1.0  -0.6534
  O  O320  1  0.801310  0.547240  0.876860  1.0  -0.6891
  O  O321  1  0.766240  0.344880  0.782370  1.0  -0.7404
  O  O322  1  0.598470  0.287620  0.845400  1.0  -0.8396
  O  O323  1  0.779670  0.507740  0.804570  1.0  -0.6118
  O  O324  1  0.637120  0.772440  0.928480  1.0  -0.5423
  O  O325  1  0.794450  0.187780  0.836960  1.0  -0.7025
  O  O326  1  0.620520  0.409580  0.854150  1.0  -0.6227
  O  O327  1  0.851180  0.314360  0.859480  1.0  -0.7701
  O  O328  1  0.809670  0.849940  0.921460  1.0  -0.5222
  O  O329  1  0.262640  0.452680  0.897730  1.0  -0.5541
  O  O330  1  0.475210  0.186820  0.598600  1.0  -0.502
  O  O331  1  0.572410  0.110620  0.581930  1.0  -0.5452
  O  O332  1  0.266630  0.443260  0.816880  1.0  -0.5509
