# generated using pymatgen
data_Dy2H18C42(SO6)3
_symmetry_space_group_name_H-M   'P 1'
_cell_length_a   12.49960000
_cell_length_b   17.70080000
_cell_length_c   22.38690000
_cell_angle_alpha   79.65700000
_cell_angle_beta   80.45200000
_cell_angle_gamma   81.32600000
_symmetry_Int_Tables_number   1
_chemical_formula_structural   Dy2H18C42(SO6)3
_chemical_formula_sum   'Dy4 H36 C84 S6 O36'
_cell_volume   4767.63725919
_cell_formula_units_Z   2
loop_
 _symmetry_equiv_pos_site_id
 _symmetry_equiv_pos_as_xyz
  1  'x, y, z'
loop_
 _atom_site_type_symbol
 _atom_site_label
 _atom_site_symmetry_multiplicity
 _atom_site_fract_x
 _atom_site_fract_y
 _atom_site_fract_z
 _atom_site_occupancy
 _atom_site_charge
  Dy  Dy1  1  0.653370  0.029210  0.997920  1.0  2.2568
  Dy  Dy2  1  0.871180  0.429900  0.518050  1.0  2.2584
  Dy  Dy3  1  0.346630  0.970790  0.002080  1.0  2.2564
  Dy  Dy4  1  0.128820  0.570100  0.481950  1.0  2.2568
  H  H5  1  0.753600  0.007300  0.201700  1.0  0.1071
  H  H6  1  0.711600  0.230200  0.119500  1.0  0.1175
  H  H7  1  0.777400  0.045800  0.291500  1.0  0.1234
  H  H8  1  0.799300  0.108600  0.381000  1.0  0.1215
  H  H9  1  0.758000  0.378500  0.332100  1.0  0.1213
  H  H10  1  0.820600  0.184800  0.451500  1.0  0.1119
  H  H11  1  0.690700  0.885900  0.125300  1.0  0.1156
  H  H12  1  0.454200  0.746600  0.151100  1.0  0.1089
  H  H13  1  0.530300  0.666667  0.232600  1.0  0.1313
  H  H14  1  0.635500  0.596600  0.317600  1.0  0.1261
  H  H15  1  0.747400  0.551400  0.395900  1.0  0.1055
  H  H16  1  0.931100  0.726100  0.328500  1.0  0.1146
  H  H17  1  0.955200  0.695400  0.636600  1.0  0.1162
  H  H18  1  0.714700  0.560400  0.663000  1.0  0.1058
  H  H19  1  0.618700  0.625400  0.742300  1.0  0.1261
  H  H20  1  0.542000  0.711000  0.822000  1.0  0.1201
  H  H21  1  0.768000  0.894700  0.830200  1.0  0.1257
  H  H22  1  0.491600  0.799300  0.889000  1.0  0.1002
  H  H23  1  0.246400  0.992700  0.798300  1.0  0.1071
  H  H24  1  0.288400  0.769800  0.880500  1.0  0.1186
  H  H25  1  0.222600  0.954200  0.708500  1.0  0.1234
  H  H26  1  0.200700  0.891400  0.619000  1.0  0.1215
  H  H27  1  0.242000  0.621500  0.667900  1.0  0.1213
  H  H28  1  0.179400  0.815200  0.548500  1.0  0.1118
  H  H29  1  0.309300  0.114100  0.874700  1.0  0.1156
  H  H30  1  0.545800  0.253400  0.848900  1.0  0.1095
  H  H31  1  0.469700  0.333333  0.767400  1.0  0.1321
  H  H32  1  0.364500  0.403400  0.682400  1.0  0.1257
  H  H33  1  0.252600  0.448600  0.604100  1.0  0.1057
  H  H34  1  0.068900  0.273900  0.671500  1.0  0.1154
  H  H35  1  0.044800  0.304600  0.363400  1.0  0.1159
  H  H36  1  0.285300  0.439600  0.337000  1.0  0.1061
  H  H37  1  0.381300  0.374600  0.257700  1.0  0.126
  H  H38  1  0.458000  0.289000  0.178000  1.0  0.1202
  H  H39  1  0.232000  0.105300  0.169800  1.0  0.1257
  H  H40  1  0.508400  0.200700  0.111000  1.0  0.0992
  C  C41  1  0.724100  0.084700  0.092200  1.0  0.6441
  C  C42  1  0.734400  0.114700  0.150800  1.0  -0.1281
  C  C43  1  0.751000  0.059600  0.203400  1.0  -0.0192
  C  C44  1  0.724800  0.193300  0.153500  1.0  0.0086
  C  C45  1  0.735600  0.214500  0.207800  1.0  -0.2025
  C  C46  1  0.763500  0.082500  0.257400  1.0  -0.1131
  C  C47  1  0.754900  0.161300  0.260100  1.0  0.0649
  C  C48  1  0.767800  0.197700  0.313200  1.0  0.0744
  C  C49  1  0.754500  0.278300  0.300100  1.0  -0.2153
  C  C50  1  0.791700  0.162300  0.370700  1.0  -0.1114
  C  C51  1  0.766900  0.324800  0.342000  1.0  0.0102
  C  C52  1  0.804300  0.208200  0.412900  1.0  -0.0309
  C  C53  1  0.792800  0.288800  0.398300  1.0  -0.1315
  C  C54  1  0.808500  0.338700  0.444900  1.0  0.673
  C  C55  1  0.503300  0.875900  0.081300  1.0  0.7793
  C  C56  1  0.563300  0.824000  0.129300  1.0  -0.1687
  C  C57  1  0.658700  0.842500  0.145500  1.0  0.0087
  C  C58  1  0.517400  0.758500  0.162200  1.0  -0.0348
  C  C59  1  0.562300  0.709700  0.211300  1.0  -0.134
  C  C60  1  0.703400  0.792600  0.193600  1.0  -0.1682
  C  C61  1  0.657300  0.729500  0.226100  1.0  0.0512
  C  C62  1  0.718600  0.687600  0.278500  1.0  0.0436
  C  C63  1  0.809900  0.724600  0.281900  1.0  -0.2086
  C  C64  1  0.694100  0.622000  0.320200  1.0  -0.1228
  C  C65  1  0.761900  0.594900  0.367100  1.0  -0.0112
  C  C66  1  0.873200  0.699700  0.326600  1.0  0.0559
  C  C67  1  0.852600  0.634900  0.369700  1.0  -0.1687
  C  C68  1  0.922300  0.605400  0.418000  1.0  0.7969
  C  C69  1  0.904100  0.576200  0.591900  1.0  0.8129
  C  C70  1  0.843900  0.619800  0.643300  1.0  -0.1679
  C  C71  1  0.889400  0.680500  0.657900  1.0  0.0244
  C  C72  1  0.744200  0.600300  0.673900  1.0  -0.0164
  C  C73  1  0.832200  0.717800  0.705700  1.0  -0.2175
  C  C74  1  0.685400  0.639500  0.721600  1.0  -0.1198
  C  C75  1  0.731100  0.700100  0.736500  1.0  0.0735
  C  C76  1  0.684600  0.749100  0.784400  1.0  0.0665
  C  C77  1  0.750600  0.804600  0.787800  1.0  -0.2316
  C  C78  1  0.587700  0.747600  0.822700  1.0  -0.1235
  C  C79  1  0.721600  0.859000  0.828600  1.0  -0.0096
  C  C80  1  0.557600  0.801100  0.862900  1.0  -0.0333
  C  C81  1  0.622900  0.857300  0.865500  1.0  -0.1513
  C  C82  1  0.584800  0.914500  0.910700  1.0  0.7738
  C  C83  1  0.275900  0.915300  0.907800  1.0  0.6453
  C  C84  1  0.265600  0.885300  0.849200  1.0  -0.1262
  C  C85  1  0.249000  0.940400  0.796600  1.0  -0.0194
  C  C86  1  0.275200  0.806700  0.846500  1.0  0.0128
  C  C87  1  0.264400  0.785500  0.792200  1.0  -0.203
  C  C88  1  0.236500  0.917500  0.742600  1.0  -0.1126
  C  C89  1  0.245100  0.838700  0.739900  1.0  0.0645
  C  C90  1  0.232200  0.802300  0.686800  1.0  0.0741
  C  C91  1  0.245500  0.721700  0.699900  1.0  -0.2156
  C  C92  1  0.208300  0.837700  0.629300  1.0  -0.1128
  C  C93  1  0.233100  0.675200  0.658000  1.0  0.0136
  C  C94  1  0.195700  0.791800  0.587100  1.0  -0.029
  C  C95  1  0.207200  0.711200  0.601700  1.0  -0.1327
  C  C96  1  0.191500  0.661300  0.555100  1.0  0.6737
  C  C97  1  0.496700  0.124100  0.918700  1.0  0.7813
  C  C98  1  0.436700  0.176000  0.870700  1.0  -0.1692
  C  C99  1  0.341300  0.157500  0.854500  1.0  0.0096
  C  C100  1  0.482600  0.241500  0.837800  1.0  -0.0262
  C  C101  1  0.437700  0.290300  0.788700  1.0  -0.1332
  C  C102  1  0.296600  0.207400  0.806400  1.0  -0.1681
  C  C103  1  0.342700  0.270500  0.773900  1.0  0.0513
  C  C104  1  0.281400  0.312400  0.721500  1.0  0.0417
  C  C105  1  0.190100  0.275400  0.718100  1.0  -0.2081
  C  C106  1  0.305900  0.378000  0.679800  1.0  -0.1227
  C  C107  1  0.238100  0.405100  0.632900  1.0  -0.0111
  C  C108  1  0.126800  0.300300  0.673400  1.0  0.0564
  C  C109  1  0.147400  0.365100  0.630300  1.0  -0.1689
  C  C110  1  0.077700  0.394600  0.582000  1.0  0.7978
  C  C111  1  0.095900  0.423800  0.408100  1.0  0.814
  C  C112  1  0.156100  0.380200  0.356700  1.0  -0.1682
  C  C113  1  0.110600  0.319500  0.342100  1.0  0.0256
  C  C114  1  0.255800  0.399700  0.326100  1.0  -0.0161
  C  C115  1  0.167800  0.282200  0.294300  1.0  -0.2161
  C  C116  1  0.314600  0.360500  0.278400  1.0  -0.1178
  C  C117  1  0.268900  0.299900  0.263500  1.0  0.0739
  C  C118  1  0.315400  0.250900  0.215600  1.0  0.0671
  C  C119  1  0.249400  0.195400  0.212200  1.0  -0.2308
  C  C120  1  0.412300  0.252400  0.177300  1.0  -0.1235
  C  C121  1  0.278400  0.141000  0.171400  1.0  -0.0069
  C  C122  1  0.442400  0.198900  0.137100  1.0  -0.0297
  C  C123  1  0.377100  0.142700  0.134500  1.0  -0.1506
  C  C124  1  0.415200  0.085500  0.089300  1.0  0.774
  S  S125  1  0.720000  0.310600  0.224410  1.0  1.1186
  S  S126  1  0.820700  0.806400  0.224000  1.0  1.1385
  S  S127  1  0.873700  0.795200  0.734800  1.0  1.1233
  S  S128  1  0.280000  0.689400  0.775590  1.0  1.1179
  S  S129  1  0.179300  0.193600  0.776000  1.0  1.1392
  S  S130  1  0.126300  0.204800  0.265200  1.0  1.1237
  O  O131  1  0.712900  0.014700  0.096000  1.0  -0.6846
  O  O132  1  0.723100  0.133300  0.041000  1.0  -0.6698
  O  O133  1  0.841200  0.303900  0.494900  1.0  -0.6965
  O  O134  1  0.793100  0.410000  0.430100  1.0  -0.698
  O  O135  1  0.799600  0.355700  0.185000  1.0  -0.5509
  O  O136  1  0.605800  0.344600  0.227600  1.0  -0.5808
  O  O137  1  0.550400  0.932600  0.050600  1.0  -0.8596
  O  O138  1  0.411900  0.863900  0.073200  1.0  -0.6625
  O  O139  1  0.903300  0.545000  0.456600  1.0  -0.8193
  O  O140  1  0.001600  0.642300  0.418900  1.0  -0.6758
  O  O141  1  0.799900  0.874700  0.250500  1.0  -0.5154
  O  O142  1  0.920900  0.796100  0.181100  1.0  -0.5595
  O  O143  1  0.980600  0.605000  0.558000  1.0  -0.6842
  O  O144  1  0.867900  0.513700  0.589700  1.0  -0.7543
  O  O145  1  0.648800  0.961100  0.915300  1.0  -0.7124
  O  O146  1  0.879200  0.863100  0.689000  1.0  -0.5394
  O  O147  1  0.966300  0.767500  0.767800  1.0  -0.5638
  O  O148  1  0.490600  0.907800  0.941000  1.0  -0.6936
  O  O149  1  0.287100  0.985300  0.904000  1.0  -0.686
  O  O150  1  0.276900  0.866700  0.959000  1.0  -0.6681
  O  O151  1  0.158800  0.696100  0.505100  1.0  -0.7006
  O  O152  1  0.206900  0.590000  0.569900  1.0  -0.6978
  O  O153  1  0.200400  0.644300  0.815000  1.0  -0.5564
  O  O154  1  0.394200  0.655400  0.772400  1.0  -0.5824
  O  O155  1  0.449600  0.067400  0.949400  1.0  -0.8596
  O  O156  1  0.588100  0.136100  0.926800  1.0  -0.6625
  O  O157  1  0.096700  0.455000  0.543400  1.0  -0.8227
  O  O158  1  0.998400  0.357700  0.581100  1.0  -0.6758
  O  O159  1  0.200100  0.125300  0.749500  1.0  -0.5175
  O  O160  1  0.079100  0.203900  0.818900  1.0  -0.558
  O  O161  1  0.019400  0.395000  0.442000  1.0  -0.6845
  O  O162  1  0.132100  0.486300  0.410300  1.0  -0.7697
  O  O163  1  0.351200  0.038900  0.084700  1.0  -0.7107
  O  O164  1  0.120800  0.136900  0.311000  1.0  -0.5397
  O  O165  1  0.033700  0.232500  0.232200  1.0  -0.5631
  O  O166  1  0.509400  0.092200  0.059000  1.0  -0.694
