# generated using pymatgen
data_Zn2H20C28S(NO4)2
_symmetry_space_group_name_H-M   'P 1'
_cell_length_a   9.55910000
_cell_length_b   9.78200000
_cell_length_c   18.28800000
_cell_angle_alpha   78.75000000
_cell_angle_beta   86.28000000
_cell_angle_gamma   68.73000000
_symmetry_Int_Tables_number   1
_chemical_formula_structural   Zn2H20C28S(NO4)2
_chemical_formula_sum   'Zn4 H40 C56 S2 N4 O16'
_cell_volume   1562.91871024
_cell_formula_units_Z   2
loop_
 _symmetry_equiv_pos_site_id
 _symmetry_equiv_pos_as_xyz
  1  'x, y, z'
loop_
 _atom_site_type_symbol
 _atom_site_label
 _atom_site_symmetry_multiplicity
 _atom_site_fract_x
 _atom_site_fract_y
 _atom_site_fract_z
 _atom_site_occupancy
 _atom_site_charge
  Zn  Zn1  1  0.094030  0.096000  0.974340  1.0  0.9446
  Zn  Zn2  1  0.182010  0.889600  0.146950  1.0  0.9904
  Zn  Zn3  1  0.905970  0.904000  0.025660  1.0  0.9437
  Zn  Zn4  1  0.817990  0.110400  0.853050  1.0  0.9904
  H  H5  1  0.963700  0.066100  0.705900  1.0  0.0849
  H  H6  1  0.054900  0.194300  0.606700  1.0  0.1195
  H  H7  1  0.923400  0.543600  0.700200  1.0  0.1205
  H  H8  1  0.821000  0.418400  0.799200  1.0  0.1031
  H  H9  1  0.071300  0.550300  0.574400  1.0  0.1239
  H  H10  1  0.876300  0.684300  0.492800  1.0  0.1483
  H  H11  1  0.780000  0.342900  0.478900  1.0  0.124
  H  H12  1  0.617400  0.270000  0.564400  1.0  0.1288
  H  H13  1  0.531900  0.640300  0.651900  1.0  0.1426
  H  H14  1  0.694600  0.713100  0.566300  1.0  0.1307
  H  H15  1  0.480700  0.468400  0.722300  1.0  0.125
  H  H16  1  0.497400  0.229200  0.666500  1.0  0.1202
  H  H17  1  0.366600  0.075300  0.735100  1.0  0.129
  H  H18  1  0.261700  0.993800  0.840500  1.0  0.09
  H  H19  1  0.142200  0.385300  0.901600  1.0  0.097
  H  H20  1  0.259700  0.472200  0.794300  1.0  0.1344
  H  H21  1  0.572100  0.537900  0.066800  1.0  0.1146
  H  H22  1  0.870900  0.544500  0.901300  1.0  0.103
  H  H23  1  0.513700  0.916500  0.916600  1.0  0.1252
  H  H24  1  0.036300  0.933900  0.294100  1.0  0.0843
  H  H25  1  0.945100  0.805700  0.393300  1.0  0.1202
  H  H26  1  0.076600  0.456400  0.299800  1.0  0.1206
  H  H27  1  0.179000  0.581600  0.200800  1.0  0.1036
  H  H28  1  0.928700  0.449700  0.425600  1.0  0.1217
  H  H29  1  0.123700  0.315700  0.507200  1.0  0.1461
  H  H30  1  0.220000  0.657100  0.521100  1.0  0.125
  H  H31  1  0.382600  0.730000  0.435600  1.0  0.1282
  H  H32  1  0.468100  0.359700  0.348100  1.0  0.143
  H  H33  1  0.305400  0.286900  0.433700  1.0  0.131
  H  H34  1  0.519300  0.531600  0.277700  1.0  0.1256
  H  H35  1  0.502600  0.770800  0.333500  1.0  0.1216
  H  H36  1  0.633400  0.924700  0.264900  1.0  0.1291
  H  H37  1  0.738300  0.006200  0.159500  1.0  0.0905
  H  H38  1  0.857800  0.614700  0.098400  1.0  0.0973
  H  H39  1  0.740300  0.527800  0.205700  1.0  0.1352
  H  H40  1  0.427900  0.462100  0.933200  1.0  0.1148
  H  H41  1  0.129100  0.455500  0.098700  1.0  0.1034
  H  H42  1  0.486300  0.083500  0.083400  1.0  0.1251
  H  H43  1  0.986200  0.888070  0.936280  1.0  0.298
  H  H44  1  0.013800  0.111930  0.063720  1.0  0.2974
  C  C45  1  0.950200  0.166000  0.706500  1.0  0.1499
  C  C46  1  0.004700  0.248000  0.643900  1.0  -0.1368
  C  C47  1  0.991800  0.392600  0.632700  1.0  0.0253
  C  C48  1  0.928400  0.447000  0.697300  1.0  -0.0656
  C  C49  1  0.869300  0.368600  0.760400  1.0  0.1381
  C  C50  1  0.025400  0.482200  0.561300  1.0  -0.0875
  C  C51  1  0.898900  0.576000  0.499100  1.0  -0.063
  C  C52  1  0.753000  0.535000  0.514300  1.0  -0.0724
  C  C53  1  0.730000  0.402900  0.513800  1.0  -0.099
  C  C54  1  0.632900  0.359400  0.564800  1.0  -0.1144
  C  C55  1  0.558900  0.448100  0.616400  1.0  0.1304
  C  C56  1  0.581900  0.580300  0.617000  1.0  -0.1511
  C  C57  1  0.679000  0.623700  0.565900  1.0  -0.1527
  C  C58  1  0.495500  0.409000  0.685800  1.0  -0.1871
  C  C59  1  0.460000  0.298500  0.698600  1.0  -0.0606
  C  C60  1  0.358100  0.263200  0.763000  1.0  -0.0154
  C  C61  1  0.333800  0.135400  0.771700  1.0  -0.1329
  C  C62  1  0.262600  0.091400  0.832500  1.0  0.1751
  C  C63  1  0.192800  0.320000  0.869000  1.0  0.1703
  C  C64  1  0.268100  0.371600  0.806700  1.0  -0.1581
  C  C65  1  0.526500  0.736300  0.997300  1.0  -0.0906
  C  C66  1  0.605800  0.588800  0.024600  1.0  -0.0172
  C  C67  1  0.739400  0.514000  0.988200  1.0  -0.1004
  C  C68  1  0.783700  0.593900  0.926400  1.0  -0.0442
  C  C69  1  0.706400  0.741700  0.900100  1.0  -0.2529
  C  C70  1  0.571300  0.816100  0.935000  1.0  -0.0586
  C  C71  1  0.380000  0.820700  0.033800  1.0  0.6537
  C  C72  1  0.830400  0.354300  0.017800  1.0  0.6453
  C  C73  1  0.049800  0.834000  0.293500  1.0  0.151
  C  C74  1  0.995300  0.752000  0.356100  1.0  -0.138
  C  C75  1  0.008200  0.607400  0.367300  1.0  0.0253
  C  C76  1  0.071600  0.553000  0.302700  1.0  -0.0646
  C  C77  1  0.130700  0.631400  0.239600  1.0  0.1383
  C  C78  1  0.974600  0.517800  0.438700  1.0  -0.0866
  C  C79  1  0.101100  0.424000  0.500900  1.0  -0.063
  C  C80  1  0.247000  0.465000  0.485700  1.0  -0.0722
  C  C81  1  0.270000  0.597100  0.486200  1.0  -0.1018
  C  C82  1  0.367100  0.640600  0.435200  1.0  -0.1144
  C  C83  1  0.441100  0.551900  0.383600  1.0  0.1304
  C  C84  1  0.418100  0.419700  0.383000  1.0  -0.1519
  C  C85  1  0.321000  0.376300  0.434100  1.0  -0.1555
  C  C86  1  0.504500  0.591000  0.314200  1.0  -0.1873
  C  C87  1  0.540000  0.701500  0.301400  1.0  -0.0604
  C  C88  1  0.641900  0.736800  0.237000  1.0  -0.0172
  C  C89  1  0.666200  0.864600  0.228300  1.0  -0.1351
  C  C90  1  0.737400  0.908600  0.167500  1.0  0.1746
  C  C91  1  0.807200  0.680000  0.131000  1.0  0.1715
  C  C92  1  0.731900  0.628400  0.193300  1.0  -0.1588
  C  C93  1  0.473500  0.263700  0.002700  1.0  -0.0906
  C  C94  1  0.394200  0.411200  0.975400  1.0  -0.0205
  C  C95  1  0.260600  0.486000  0.011800  1.0  -0.0987
  C  C96  1  0.216300  0.406100  0.073600  1.0  -0.0431
  C  C97  1  0.293600  0.258300  0.099900  1.0  -0.2521
  C  C98  1  0.428700  0.183900  0.065000  1.0  -0.0554
  C  C99  1  0.620000  0.179300  0.966200  1.0  0.654
  C  C100  1  0.169600  0.645700  0.982200  1.0  0.6459
  S  S101  1  0.759400  0.830400  0.814400  1.0  1.3873
  S  S102  1  0.240600  0.169600  0.185600  1.0  1.3887
  N  N103  1  0.883200  0.223700  0.763800  1.0  -0.3282
  N  N104  1  0.191600  0.178600  0.883200  1.0  -0.3223
  N  N105  1  0.116800  0.776300  0.236200  1.0  -0.3269
  N  N106  1  0.808400  0.821400  0.116800  1.0  -0.3228
  O  O107  1  0.308700  0.954300  0.006400  1.0  -0.6288
  O  O108  1  0.340600  0.752400  0.096100  1.0  -0.5803
  O  O109  1  0.792700  0.279500  0.072700  1.0  -0.5291
  O  O110  1  0.952400  0.299000  0.978800  1.0  -0.6177
  O  O111  1  0.718600  0.990500  0.819100  1.0  -0.7674
  O  O112  1  0.671700  0.814400  0.757700  1.0  -0.6467
  O  O113  1  0.920900  0.758400  0.807300  1.0  -0.6648
  O  O114  1  0.986200  0.992300  0.925400  1.0  -0.8284
  O  O115  1  0.691300  0.045700  0.993600  1.0  -0.6289
  O  O116  1  0.659400  0.247600  0.903900  1.0  -0.5806
  O  O117  1  0.207300  0.720500  0.927300  1.0  -0.5278
  O  O118  1  0.047600  0.701000  0.021200  1.0  -0.6182
  O  O119  1  0.281400  0.009500  0.180900  1.0  -0.769
  O  O120  1  0.328300  0.185600  0.242300  1.0  -0.6468
  O  O121  1  0.079100  0.241600  0.192700  1.0  -0.6617
  O  O122  1  0.013800  0.007700  0.074600  1.0  -0.8262
