# generated using pymatgen
data_Zn2H20C28S(NO4)2
_symmetry_space_group_name_H-M   'P 1'
_cell_length_a   9.40930000
_cell_length_b   9.87600000
_cell_length_c   18.30700000
_cell_angle_alpha   79.35000000
_cell_angle_beta   87.30000000
_cell_angle_gamma   68.20000000
_symmetry_Int_Tables_number   1
_chemical_formula_structural   Zn2H20C28S(NO4)2
_chemical_formula_sum   'Zn4 H40 C56 S2 N4 O16'
_cell_volume   1551.90038016
_cell_formula_units_Z   2
loop_
 _symmetry_equiv_pos_site_id
 _symmetry_equiv_pos_as_xyz
  1  'x, y, z'
loop_
 _atom_site_type_symbol
 _atom_site_label
 _atom_site_symmetry_multiplicity
 _atom_site_fract_x
 _atom_site_fract_y
 _atom_site_fract_z
 _atom_site_occupancy
 _atom_site_charge
  Zn  Zn1  1  0.809240  0.100310  0.856650  1.0  1.0074
  Zn  Zn2  1  0.094300  0.094480  0.968550  1.0  1.0465
  Zn  Zn3  1  0.190760  0.899690  0.143350  1.0  1.0097
  Zn  Zn4  1  0.905700  0.905520  0.031450  1.0  1.047
  H  H5  1  0.936200  0.067600  0.706800  1.0  0.0949
  H  H6  1  0.047200  0.188600  0.616500  1.0  0.1267
  H  H7  1  0.931700  0.523100  0.725200  1.0  0.1258
  H  H8  1  0.815200  0.402600  0.811100  1.0  0.0906
  H  H9  1  0.078600  0.541000  0.615800  1.0  0.1051
  H  H10  1  0.165500  0.306200  0.547800  1.0  0.1058
  H  H11  1  0.296900  0.305900  0.439700  1.0  0.1157
  H  H12  1  0.433400  0.391400  0.350500  1.0  0.1164
  H  H13  1  0.360400  0.739400  0.444900  1.0  0.1083
  H  H14  1  0.226800  0.648000  0.538000  1.0  0.1151
  H  H15  1  0.536300  0.534200  0.292600  1.0  0.1047
  H  H16  1  0.499600  0.790500  0.331500  1.0  0.1015
  H  H17  1  0.702000  0.552600  0.192700  1.0  0.1304
  H  H18  1  0.841500  0.631700  0.099100  1.0  0.0813
  H  H19  1  0.749300  0.000400  0.171900  1.0  0.0889
  H  H20  1  0.609800  0.930300  0.266700  1.0  0.118
  H  H21  1  0.425600  0.460200  0.939000  1.0  0.1068
  H  H22  1  0.118900  0.460100  0.099100  1.0  0.1018
  H  H23  1  0.478300  0.086500  0.085800  1.0  0.1038
  H  H24  1  0.015000  0.903700  0.919100  1.0  0.4245
  H  H25  1  0.063800  0.932400  0.293200  1.0  0.0943
  H  H26  1  0.952800  0.811400  0.383500  1.0  0.1265
  H  H27  1  0.068300  0.476900  0.274800  1.0  0.1256
  H  H28  1  0.184800  0.597400  0.188900  1.0  0.091
  H  H29  1  0.921400  0.459000  0.384200  1.0  0.1013
  H  H30  1  0.834500  0.693800  0.452200  1.0  0.1038
  H  H31  1  0.703100  0.694100  0.560300  1.0  0.1159
  H  H32  1  0.566600  0.608600  0.649500  1.0  0.1159
  H  H33  1  0.639600  0.260600  0.555100  1.0  0.1086
  H  H34  1  0.773200  0.352000  0.462000  1.0  0.1158
  H  H35  1  0.463700  0.465800  0.707400  1.0  0.1063
  H  H36  1  0.500400  0.209500  0.668500  1.0  0.1013
  H  H37  1  0.298000  0.447400  0.807300  1.0  0.131
  H  H38  1  0.158500  0.368300  0.900900  1.0  0.0817
  H  H39  1  0.250700  0.999600  0.828100  1.0  0.0889
  H  H40  1  0.390200  0.069700  0.733300  1.0  0.1194
  H  H41  1  0.574400  0.539800  0.061000  1.0  0.1061
  H  H42  1  0.881100  0.539900  0.900900  1.0  0.1014
  H  H43  1  0.521700  0.913500  0.914200  1.0  0.1042
  H  H44  1  0.985000  0.096300  0.080900  1.0  0.4248
  C  C45  1  0.935900  0.159900  0.711400  1.0  0.1594
  C  C46  1  0.003900  0.232100  0.657200  1.0  -0.1933
  C  C47  1  0.007600  0.366600  0.663000  1.0  0.1416
  C  C48  1  0.935000  0.429700  0.720700  1.0  -0.1923
  C  C49  1  0.866500  0.356300  0.772500  1.0  0.183
  C  C50  1  0.086200  0.447700  0.608700  1.0  -0.1356
  C  C51  1  0.161900  0.398700  0.554100  1.0  -0.0655
  C  C52  1  0.246100  0.468600  0.498400  1.0  0.0269
  C  C53  1  0.309500  0.394300  0.441500  1.0  -0.1166
  C  C54  1  0.390500  0.446300  0.387500  1.0  -0.1255
  C  C55  1  0.410400  0.574900  0.386200  1.0  0.0661
  C  C56  1  0.348100  0.650700  0.443600  1.0  -0.1116
  C  C57  1  0.266900  0.596000  0.499600  1.0  -0.117
  C  C58  1  0.501500  0.606000  0.322500  1.0  -0.0816
  C  C59  1  0.537600  0.715300  0.303700  1.0  -0.1042
  C  C60  1  0.635600  0.737200  0.240900  1.0  0.1193
  C  C61  1  0.709600  0.644800  0.189200  1.0  -0.1848
  C  C62  1  0.793800  0.693200  0.133000  1.0  0.1668
  C  C63  1  0.739700  0.908900  0.175800  1.0  0.1724
  C  C64  1  0.654600  0.867200  0.233100  1.0  -0.1931
  C  C65  1  0.473000  0.259800  0.006330  1.0  -0.1527
  C  C66  1  0.391300  0.410400  0.979840  1.0  -0.0025
  C  C67  1  0.258100  0.485500  0.015100  1.0  -0.1519
  C  C68  1  0.208500  0.410700  0.076020  1.0  0.0065
  C  C69  1  0.292100  0.261700  0.102860  1.0  -0.2549
  C  C70  1  0.423300  0.186400  0.067950  1.0  0.0411
  C  C71  1  0.613400  0.175100  0.968590  1.0  0.6958
  C  C72  1  0.164800  0.647300  0.986770  1.0  0.6695
  C  C73  1  0.064100  0.840100  0.288600  1.0  0.1522
  C  C74  1  0.996100  0.767900  0.342800  1.0  -0.1959
  C  C75  1  0.992400  0.633400  0.337000  1.0  0.1409
  C  C76  1  0.065000  0.570300  0.279300  1.0  -0.1917
  C  C77  1  0.133500  0.643700  0.227500  1.0  0.1844
  C  C78  1  0.913800  0.552300  0.391300  1.0  -0.1354
  C  C79  1  0.838100  0.601300  0.445900  1.0  -0.064
  C  C80  1  0.753900  0.531400  0.501600  1.0  0.0278
  C  C81  1  0.690500  0.605700  0.558500  1.0  -0.1168
  C  C82  1  0.609500  0.553700  0.612500  1.0  -0.1278
  C  C83  1  0.589600  0.425100  0.613800  1.0  0.0656
  C  C84  1  0.651900  0.349300  0.556400  1.0  -0.1113
  C  C85  1  0.733100  0.404000  0.500400  1.0  -0.1168
  C  C86  1  0.498500  0.394000  0.677500  1.0  -0.0842
  C  C87  1  0.462400  0.284700  0.696300  1.0  -0.1002
  C  C88  1  0.364400  0.262800  0.759100  1.0  0.1244
  C  C89  1  0.290400  0.355200  0.810800  1.0  -0.1866
  C  C90  1  0.206200  0.306800  0.867000  1.0  0.1663
  C  C91  1  0.260300  0.091100  0.824200  1.0  0.171
  C  C92  1  0.345400  0.132800  0.766900  1.0  -0.1927
  C  C93  1  0.527000  0.740200  0.993670  1.0  -0.1535
  C  C94  1  0.608700  0.589600  0.020160  1.0  -0.0004
  C  C95  1  0.741900  0.514500  0.984900  1.0  -0.1519
  C  C96  1  0.791500  0.589300  0.923980  1.0  0.006
  C  C97  1  0.707900  0.738300  0.897140  1.0  -0.2565
  C  C98  1  0.576700  0.813600  0.932050  1.0  0.0394
  C  C99  1  0.386600  0.824900  0.031410  1.0  0.6952
  C  C100  1  0.835200  0.352700  0.013230  1.0  0.6684
  S  S101  1  0.240470  0.175540  0.188200  1.0  1.3678
  S  S102  1  0.759530  0.824460  0.811800  1.0  1.367
  N  N103  1  0.870600  0.218500  0.769520  1.0  -0.3553
  N  N104  1  0.808900  0.823800  0.125760  1.0  -0.3552
  N  N105  1  0.129400  0.781500  0.230480  1.0  -0.3551
  N  N106  1  0.191100  0.176200  0.874240  1.0  -0.354
  O  O107  1  0.685600  0.042100  0.998580  1.0  -0.6308
  O  O108  1  0.649500  0.238400  0.908570  1.0  -0.5917
  O  O109  1  0.047000  0.701100  0.025000  1.0  -0.6496
  O  O110  1  0.206700  0.715800  0.931940  1.0  -0.5647
  O  O111  1  0.287600  0.016800  0.183010  1.0  -0.7306
  O  O112  1  0.331400  0.192700  0.244550  1.0  -0.6581
  O  O113  1  0.077600  0.246200  0.194520  1.0  -0.6361
  O  O114  1  0.981400  0.987500  0.925820  1.0  -0.9774
  O  O115  1  0.314400  0.957900  0.001420  1.0  -0.6301
  O  O116  1  0.350500  0.761600  0.091430  1.0  -0.5911
  O  O117  1  0.953000  0.298900  0.975000  1.0  -0.6493
  O  O118  1  0.793300  0.284200  0.068060  1.0  -0.5642
  O  O119  1  0.712400  0.983200  0.816990  1.0  -0.7297
  O  O120  1  0.668600  0.807300  0.755450  1.0  -0.6592
  O  O121  1  0.922400  0.753800  0.805480  1.0  -0.637
  O  O122  1  0.018600  0.012500  0.074180  1.0  -0.9778
