# generated using pymatgen
data_Dy2H6(C6O5)3
_symmetry_space_group_name_H-M   'P 1'
_cell_length_a   18.46500000
_cell_length_b   9.24420000
_cell_length_c   19.69900000
_cell_angle_alpha   90.00000000
_cell_angle_beta   102.18000000
_cell_angle_gamma   90.00000000
_symmetry_Int_Tables_number   1
_chemical_formula_structural   Dy2H6(C6O5)3
_chemical_formula_sum   'Dy8 H24 C72 O60'
_cell_volume   3286.81281059
_cell_formula_units_Z   4
loop_
 _symmetry_equiv_pos_site_id
 _symmetry_equiv_pos_as_xyz
  1  'x, y, z'
loop_
 _atom_site_type_symbol
 _atom_site_label
 _atom_site_symmetry_multiplicity
 _atom_site_fract_x
 _atom_site_fract_y
 _atom_site_fract_z
 _atom_site_occupancy
 _atom_site_charge
  Dy  Dy1  1  0.020770  0.218450  0.995150  1.0  2.3098
  Dy  Dy2  1  0.520770  0.718450  0.995150  1.0  2.3079
  Dy  Dy3  1  0.979230  0.218450  0.504850  1.0  2.3095
  Dy  Dy4  1  0.479230  0.718450  0.504850  1.0  2.3083
  Dy  Dy5  1  0.979230  0.781550  0.004850  1.0  2.3108
  Dy  Dy6  1  0.479230  0.281550  0.004850  1.0  2.3101
  Dy  Dy7  1  0.020770  0.781550  0.495150  1.0  2.309
  Dy  Dy8  1  0.520770  0.281550  0.495150  1.0  2.3088
  H  H9  1  0.221800  0.697200  0.100200  1.0  0.133
  H  H10  1  0.359800  0.704100  0.108100  1.0  0.1078
  H  H11  1  0.001400  0.730500  0.814900  1.0  0.113
  H  H12  1  0.721800  0.197200  0.100200  1.0  0.133
  H  H13  1  0.859800  0.204100  0.108100  1.0  0.1078
  H  H14  1  0.501400  0.230500  0.814900  1.0  0.113
  H  H15  1  0.778200  0.697200  0.399800  1.0  0.1313
  H  H16  1  0.640200  0.704100  0.391900  1.0  0.1054
  H  H17  1  0.998600  0.730500  0.685100  1.0  0.1157
  H  H18  1  0.278200  0.197200  0.399800  1.0  0.1313
  H  H19  1  0.140200  0.204100  0.391900  1.0  0.1054
  H  H20  1  0.498600  0.230500  0.685100  1.0  0.1157
  H  H21  1  0.778200  0.302800  0.899800  1.0  0.1322
  H  H22  1  0.640200  0.295900  0.891900  1.0  0.1053
  H  H23  1  0.998600  0.269500  0.185100  1.0  0.1157
  H  H24  1  0.278200  0.802800  0.899800  1.0  0.1322
  H  H25  1  0.140200  0.795900  0.891900  1.0  0.1053
  H  H26  1  0.498600  0.769500  0.185100  1.0  0.1157
  H  H27  1  0.221800  0.302800  0.600200  1.0  0.1333
  H  H28  1  0.359800  0.295900  0.608100  1.0  0.1054
  H  H29  1  0.001400  0.269500  0.314900  1.0  0.1134
  H  H30  1  0.721800  0.802800  0.600200  1.0  0.1333
  H  H31  1  0.859800  0.795900  0.608100  1.0  0.1054
  H  H32  1  0.501400  0.769500  0.314900  1.0  0.1133
  C  C33  1  0.248700  0.772500  0.086200  1.0  -0.1696
  C  C34  1  0.325900  0.776300  0.090500  1.0  -0.1646
  C  C35  1  0.221100  0.900900  0.057500  1.0  0.0593
  C  C36  1  0.142300  0.947400  0.034800  1.0  0.6939
  C  C37  1  0.341400  0.905800  0.063900  1.0  0.0342
  C  C38  1  0.001700  0.951400  0.805300  1.0  0.1054
  C  C39  1  0.409800  0.969800  0.051500  1.0  0.6906
  C  C40  1  0.008300  0.017200  0.873800  1.0  0.6966
  C  C41  1  0.000900  0.810800  0.786300  1.0  -0.1649
  C  C42  1  0.748700  0.272500  0.086200  1.0  -0.1696
  C  C43  1  0.825900  0.276300  0.090500  1.0  -0.1646
  C  C44  1  0.721100  0.400900  0.057500  1.0  0.0593
  C  C45  1  0.642300  0.447400  0.034800  1.0  0.6939
  C  C46  1  0.841400  0.405800  0.063900  1.0  0.0342
  C  C47  1  0.501700  0.451400  0.805300  1.0  0.1066
  C  C48  1  0.909800  0.469800  0.051500  1.0  0.6906
  C  C49  1  0.508300  0.517200  0.873800  1.0  0.6966
  C  C50  1  0.500900  0.310800  0.786300  1.0  -0.1649
  C  C51  1  0.751300  0.772500  0.413800  1.0  -0.1678
  C  C52  1  0.674100  0.776300  0.409500  1.0  -0.1632
  C  C53  1  0.778900  0.900900  0.442500  1.0  0.0582
  C  C54  1  0.857700  0.947400  0.465200  1.0  0.6946
  C  C55  1  0.658600  0.905800  0.436100  1.0  0.0354
  C  C56  1  0.998300  0.951400  0.694700  1.0  0.106
  C  C57  1  0.590200  0.969800  0.448500  1.0  0.6893
  C  C58  1  0.991700  0.017200  0.626200  1.0  0.6964
  C  C59  1  0.999100  0.810800  0.713700  1.0  -0.1651
  C  C60  1  0.251300  0.272500  0.413800  1.0  -0.1678
  C  C61  1  0.174100  0.276300  0.409500  1.0  -0.1632
  C  C62  1  0.278900  0.400900  0.442500  1.0  0.0582
  C  C63  1  0.357700  0.447400  0.465200  1.0  0.6946
  C  C64  1  0.158600  0.405800  0.436100  1.0  0.0354
  C  C65  1  0.498300  0.451400  0.694700  1.0  0.1049
  C  C66  1  0.090200  0.469800  0.448500  1.0  0.6893
  C  C67  1  0.491700  0.517200  0.626200  1.0  0.6964
  C  C68  1  0.499100  0.310800  0.713700  1.0  -0.1651
  C  C69  1  0.751300  0.227500  0.913800  1.0  -0.1671
  C  C70  1  0.674100  0.223700  0.909500  1.0  -0.1648
  C  C71  1  0.778900  0.099100  0.942500  1.0  0.0575
  C  C72  1  0.857700  0.052600  0.965200  1.0  0.6939
  C  C73  1  0.658600  0.094200  0.936100  1.0  0.0337
  C  C74  1  0.998300  0.048600  0.194700  1.0  0.1076
  C  C75  1  0.590200  0.030200  0.948500  1.0  0.6885
  C  C76  1  0.991700  0.982800  0.126200  1.0  0.7057
  C  C77  1  0.999100  0.189200  0.213700  1.0  -0.1652
  C  C78  1  0.251300  0.727500  0.913800  1.0  -0.1671
  C  C79  1  0.174100  0.723700  0.909500  1.0  -0.1648
  C  C80  1  0.278900  0.599100  0.942500  1.0  0.0573
  C  C81  1  0.357700  0.552600  0.965200  1.0  0.6939
  C  C82  1  0.158600  0.594200  0.936100  1.0  0.0338
  C  C83  1  0.498300  0.548600  0.194700  1.0  0.1076
  C  C84  1  0.090200  0.530200  0.948500  1.0  0.6885
  C  C85  1  0.491700  0.482800  0.126200  1.0  0.7057
  C  C86  1  0.499100  0.689200  0.213700  1.0  -0.1652
  C  C87  1  0.248700  0.227500  0.586200  1.0  -0.1701
  C  C88  1  0.325900  0.223700  0.590500  1.0  -0.1659
  C  C89  1  0.221100  0.099100  0.557500  1.0  0.0584
  C  C90  1  0.142300  0.052600  0.534800  1.0  0.6947
  C  C91  1  0.341400  0.094200  0.563900  1.0  0.0324
  C  C92  1  0.001700  0.048600  0.305300  1.0  0.1071
  C  C93  1  0.409800  0.030200  0.551500  1.0  0.6887
  C  C94  1  0.008300  0.982800  0.373800  1.0  0.6983
  C  C95  1  0.000900  0.189200  0.286300  1.0  -0.1654
  C  C96  1  0.748700  0.727500  0.586200  1.0  -0.1701
  C  C97  1  0.825900  0.723700  0.590500  1.0  -0.1659
  C  C98  1  0.721100  0.599100  0.557500  1.0  0.0584
  C  C99  1  0.642300  0.552600  0.534800  1.0  0.6947
  C  C100  1  0.841400  0.594200  0.563900  1.0  0.0324
  C  C101  1  0.501700  0.548600  0.305300  1.0  0.1071
  C  C102  1  0.909800  0.530200  0.551500  1.0  0.6887
  C  C103  1  0.508300  0.482800  0.373800  1.0  0.6983
  C  C104  1  0.500900  0.689200  0.286300  1.0  -0.1654
  O  O105  1  0.277000  0.983800  0.042400  1.0  -0.156
  O  O106  1  0.130800  0.073100  0.008700  1.0  -0.6882
  O  O107  1  0.020500  0.149400  0.879500  1.0  -0.6232
  O  O108  1  0.098700  0.857300  0.045800  1.0  -0.6763
  O  O109  1  0.002700  0.937300  0.923900  1.0  -0.7471
  O  O110  1  0.465300  0.884700  0.057500  1.0  -0.755
  O  O111  1  0.408000  0.099400  0.035400  1.0  -0.7072
  O  O112  1  0.777000  0.483800  0.042400  1.0  -0.156
  O  O113  1  0.630800  0.573100  0.008700  1.0  -0.6869
  O  O114  1  0.520500  0.649400  0.879500  1.0  -0.6233
  O  O115  1  0.598700  0.357300  0.045800  1.0  -0.6763
  O  O116  1  0.502700  0.437300  0.923900  1.0  -0.7471
  O  O117  1  0.965300  0.384700  0.057500  1.0  -0.755
  O  O118  1  0.908000  0.599400  0.035400  1.0  -0.7072
  O  O119  1  0.723000  0.983800  0.457600  1.0  -0.156
  O  O120  1  0.869200  0.073100  0.491300  1.0  -0.6942
  O  O121  1  0.979500  0.149400  0.620500  1.0  -0.6236
  O  O122  1  0.901300  0.857300  0.454200  1.0  -0.6774
  O  O123  1  0.997300  0.937300  0.576100  1.0  -0.7476
  O  O124  1  0.534700  0.884700  0.442500  1.0  -0.7549
  O  O125  1  0.592000  0.099400  0.464600  1.0  -0.7061
  O  O126  1  0.223000  0.483800  0.457600  1.0  -0.156
  O  O127  1  0.369200  0.573100  0.491300  1.0  -0.6942
  O  O128  1  0.479500  0.649400  0.620500  1.0  -0.6236
  O  O129  1  0.401300  0.357300  0.454200  1.0  -0.6774
  O  O130  1  0.497300  0.437300  0.576100  1.0  -0.7476
  O  O131  1  0.034700  0.384700  0.442500  1.0  -0.7549
  O  O132  1  0.092000  0.599400  0.464600  1.0  -0.7061
  O  O133  1  0.723000  0.016200  0.957600  1.0  -0.1579
  O  O134  1  0.869200  0.926900  0.991300  1.0  -0.6894
  O  O135  1  0.979500  0.850600  0.120500  1.0  -0.6237
  O  O136  1  0.901300  0.142700  0.954200  1.0  -0.679
  O  O137  1  0.997300  0.062700  0.076100  1.0  -0.748
  O  O138  1  0.534700  0.115300  0.942500  1.0  -0.7545
  O  O139  1  0.592000  0.900600  0.964600  1.0  -0.705
  O  O140  1  0.223000  0.516200  0.957600  1.0  -0.1579
  O  O141  1  0.369200  0.426900  0.991300  1.0  -0.6922
  O  O142  1  0.479500  0.350600  0.120500  1.0  -0.6237
  O  O143  1  0.401300  0.642700  0.954200  1.0  -0.6769
  O  O144  1  0.497300  0.562700  0.076100  1.0  -0.748
  O  O145  1  0.034700  0.615300  0.942500  1.0  -0.7545
  O  O146  1  0.092000  0.400600  0.964600  1.0  -0.705
  O  O147  1  0.277000  0.016200  0.542400  1.0  -0.1589
  O  O148  1  0.130800  0.926900  0.508700  1.0  -0.6858
  O  O149  1  0.020500  0.850600  0.379500  1.0  -0.6237
  O  O150  1  0.098700  0.142700  0.545800  1.0  -0.678
  O  O151  1  0.002700  0.062700  0.423900  1.0  -0.7479
  O  O152  1  0.465300  0.115300  0.557500  1.0  -0.7545
  O  O153  1  0.408000  0.900600  0.535400  1.0  -0.7062
  O  O154  1  0.777000  0.516200  0.542400  1.0  -0.1589
  O  O155  1  0.630800  0.426900  0.508700  1.0  -0.6858
  O  O156  1  0.520500  0.350600  0.379500  1.0  -0.6234
  O  O157  1  0.598700  0.642700  0.545800  1.0  -0.6762
  O  O158  1  0.502700  0.562700  0.423900  1.0  -0.7479
  O  O159  1  0.965300  0.615300  0.557500  1.0  -0.7545
  O  O160  1  0.908000  0.400600  0.535400  1.0  -0.7062
  O  O161  1  0.000000  0.038000  0.750000  1.0  -0.1776
  O  O162  1  0.500000  0.538000  0.750000  1.0  -0.1778
  O  O163  1  0.000000  0.962000  0.250000  1.0  -0.1803
  O  O164  1  0.500000  0.462000  0.250000  1.0  -0.1794
