# generated using pymatgen
data_Dy2H6(C6O5)3
_symmetry_space_group_name_H-M   'P 1'
_cell_length_a   18.30850000
_cell_length_b   9.07880000
_cell_length_c   19.64640000
_cell_angle_alpha   90.00000000
_cell_angle_beta   97.06800000
_cell_angle_gamma   90.00000000
_symmetry_Int_Tables_number   1
_chemical_formula_structural   Dy2H6(C6O5)3
_chemical_formula_sum   'Dy8 H24 C72 O60'
_cell_volume   3240.79311651
_cell_formula_units_Z   4
loop_
 _symmetry_equiv_pos_site_id
 _symmetry_equiv_pos_as_xyz
  1  'x, y, z'
loop_
 _atom_site_type_symbol
 _atom_site_label
 _atom_site_symmetry_multiplicity
 _atom_site_fract_x
 _atom_site_fract_y
 _atom_site_fract_z
 _atom_site_occupancy
 _atom_site_charge
  Dy  Dy1  1  0.971540  0.212240  0.997800  1.0  2.3118
  Dy  Dy2  1  0.471540  0.712240  0.997800  1.0  2.3118
  Dy  Dy3  1  0.028460  0.212240  0.502200  1.0  2.3112
  Dy  Dy4  1  0.528460  0.712240  0.502200  1.0  2.3112
  Dy  Dy5  1  0.028460  0.787760  0.002200  1.0  2.3104
  Dy  Dy6  1  0.528460  0.287760  0.002200  1.0  2.3114
  Dy  Dy7  1  0.971540  0.787760  0.497800  1.0  2.3107
  Dy  Dy8  1  0.471540  0.287760  0.497800  1.0  2.3117
  H  H9  1  0.143900  0.194400  0.883300  1.0  0.1066
  H  H10  1  0.281900  0.180700  0.890600  1.0  0.1391
  H  H11  1  0.995500  0.750500  0.184900  1.0  0.1118
  H  H12  1  0.643900  0.694400  0.883300  1.0  0.1066
  H  H13  1  0.781900  0.680700  0.890600  1.0  0.1391
  H  H14  1  0.495500  0.250500  0.184900  1.0  0.1118
  H  H15  1  0.856100  0.194400  0.616700  1.0  0.1069
  H  H16  1  0.718100  0.180700  0.609400  1.0  0.1395
  H  H17  1  0.004500  0.750500  0.315100  1.0  0.1119
  H  H18  1  0.356100  0.694400  0.616700  1.0  0.1069
  H  H19  1  0.218100  0.680700  0.609400  1.0  0.1395
  H  H20  1  0.504500  0.250500  0.315100  1.0  0.1119
  H  H21  1  0.856100  0.805600  0.116700  1.0  0.1067
  H  H22  1  0.718100  0.819300  0.109400  1.0  0.1399
  H  H23  1  0.004500  0.249500  0.815100  1.0  0.1125
  H  H24  1  0.356100  0.305600  0.116700  1.0  0.1067
  H  H25  1  0.218100  0.319300  0.109400  1.0  0.1399
  H  H26  1  0.504500  0.749500  0.815100  1.0  0.1125
  H  H27  1  0.143900  0.805600  0.383300  1.0  0.1067
  H  H28  1  0.281900  0.819300  0.390600  1.0  0.1398
  H  H29  1  0.995500  0.249500  0.684900  1.0  0.1123
  H  H30  1  0.643900  0.305600  0.383300  1.0  0.1067
  H  H31  1  0.781900  0.319300  0.390600  1.0  0.1398
  H  H32  1  0.495500  0.749500  0.684900  1.0  0.1123
  C  C33  1  0.357710  0.427100  0.966560  1.0  0.6947
  C  C34  1  0.177330  0.264400  0.902670  1.0  -0.1519
  C  C35  1  0.986730  0.041500  0.125900  1.0  0.6859
  C  C36  1  0.254430  0.255800  0.907300  1.0  -0.1677
  C  C37  1  0.997310  0.832900  0.213190  1.0  -0.1665
  C  C38  1  0.090560  0.462100  0.946860  1.0  0.7229
  C  C39  1  0.995390  0.974900  0.192770  1.0  0.0451
  C  C40  1  0.281060  0.379500  0.941100  1.0  0.0644
  C  C41  1  0.160660  0.394000  0.931760  1.0  0.0122
  C  C42  1  0.857710  0.927100  0.966560  1.0  0.6947
  C  C43  1  0.677330  0.764400  0.902670  1.0  -0.1519
  C  C44  1  0.486730  0.541500  0.125900  1.0  0.6859
  C  C45  1  0.754430  0.755800  0.907300  1.0  -0.1677
  C  C46  1  0.497310  0.332900  0.213190  1.0  -0.1665
  C  C47  1  0.590560  0.962100  0.946860  1.0  0.7229
  C  C48  1  0.495390  0.474900  0.192770  1.0  0.0451
  C  C49  1  0.781060  0.879500  0.941100  1.0  0.0644
  C  C50  1  0.660660  0.894000  0.931760  1.0  0.0122
  C  C51  1  0.642290  0.427100  0.533440  1.0  0.6934
  C  C52  1  0.822670  0.264400  0.597330  1.0  -0.1525
  C  C53  1  0.013270  0.041500  0.374100  1.0  0.6863
  C  C54  1  0.745570  0.255800  0.592700  1.0  -0.1668
  C  C55  1  0.002690  0.832900  0.286810  1.0  -0.1659
  C  C56  1  0.909440  0.462100  0.553140  1.0  0.7225
  C  C57  1  0.004610  0.974900  0.307230  1.0  0.0454
  C  C58  1  0.718940  0.379500  0.558900  1.0  0.0627
  C  C59  1  0.839340  0.394000  0.568240  1.0  0.0122
  C  C60  1  0.142290  0.927100  0.533440  1.0  0.6934
  C  C61  1  0.322670  0.764400  0.597330  1.0  -0.1525
  C  C62  1  0.513270  0.541500  0.374100  1.0  0.6863
  C  C63  1  0.245570  0.755800  0.592700  1.0  -0.1668
  C  C64  1  0.502690  0.332900  0.286810  1.0  -0.1659
  C  C65  1  0.409440  0.962100  0.553140  1.0  0.7225
  C  C66  1  0.504610  0.474900  0.307230  1.0  0.0454
  C  C67  1  0.218940  0.879500  0.558900  1.0  0.0627
  C  C68  1  0.339340  0.894000  0.568240  1.0  0.0122
  C  C69  1  0.642290  0.572900  0.033440  1.0  0.6932
  C  C70  1  0.822670  0.735600  0.097330  1.0  -0.1524
  C  C71  1  0.013270  0.958500  0.874100  1.0  0.6833
  C  C72  1  0.745570  0.744200  0.092700  1.0  -0.1669
  C  C73  1  0.002690  0.167100  0.786810  1.0  -0.1681
  C  C74  1  0.909440  0.537900  0.053140  1.0  0.7214
  C  C75  1  0.004610  0.025100  0.807230  1.0  0.0464
  C  C76  1  0.718940  0.620500  0.058900  1.0  0.0624
  C  C77  1  0.839340  0.606000  0.068240  1.0  0.0122
  C  C78  1  0.142290  0.072900  0.033440  1.0  0.6932
  C  C79  1  0.322670  0.235600  0.097330  1.0  -0.1524
  C  C80  1  0.513270  0.458500  0.874100  1.0  0.6833
  C  C81  1  0.245570  0.244200  0.092700  1.0  -0.1669
  C  C82  1  0.502690  0.667100  0.786810  1.0  -0.1681
  C  C83  1  0.409440  0.037900  0.053140  1.0  0.7214
  C  C84  1  0.504610  0.525100  0.807230  1.0  0.0464
  C  C85  1  0.218940  0.120500  0.058900  1.0  0.0624
  C  C86  1  0.339340  0.106000  0.068240  1.0  0.0122
  C  C87  1  0.357710  0.572900  0.466560  1.0  0.6932
  C  C88  1  0.177330  0.735600  0.402670  1.0  -0.1515
  C  C89  1  0.986730  0.958500  0.625900  1.0  0.6826
  C  C90  1  0.254430  0.744200  0.407300  1.0  -0.167
  C  C91  1  0.997310  0.167100  0.713190  1.0  -0.1677
  C  C92  1  0.090560  0.537900  0.446860  1.0  0.7219
  C  C93  1  0.995390  0.025100  0.692770  1.0  0.0455
  C  C94  1  0.281060  0.620500  0.441100  1.0  0.0629
  C  C95  1  0.160660  0.606000  0.431760  1.0  0.0115
  C  C96  1  0.857710  0.072900  0.466560  1.0  0.6932
  C  C97  1  0.677330  0.235600  0.402670  1.0  -0.1515
  C  C98  1  0.486730  0.458500  0.625900  1.0  0.6826
  C  C99  1  0.754430  0.244200  0.407300  1.0  -0.167
  C  C100  1  0.497310  0.667100  0.713190  1.0  -0.1677
  C  C101  1  0.590560  0.037900  0.446860  1.0  0.7219
  C  C102  1  0.495390  0.525100  0.692770  1.0  0.0455
  C  C103  1  0.781060  0.120500  0.441100  1.0  0.0629
  C  C104  1  0.660660  0.106000  0.431760  1.0  0.0115
  O  O105  1  0.093410  0.593900  0.966140  1.0  -0.6792
  O  O106  1  0.367480  0.553700  0.990470  1.0  -0.6617
  O  O107  1  0.406570  0.329900  0.959420  1.0  -0.7335
  O  O108  1  0.993210  0.958900  0.074800  1.0  -0.7621
  O  O109  1  0.225000  0.469700  0.955460  1.0  -0.1434
  O  O110  1  0.972470  0.176400  0.119410  1.0  -0.617
  O  O111  1  0.034250  0.381000  0.938840  1.0  -0.7265
  O  O112  1  0.593410  0.093900  0.966140  1.0  -0.6793
  O  O113  1  0.867480  0.053700  0.990470  1.0  -0.6617
  O  O114  1  0.906570  0.829900  0.959420  1.0  -0.7335
  O  O115  1  0.493210  0.458900  0.074800  1.0  -0.7617
  O  O116  1  0.725000  0.969700  0.955460  1.0  -0.1434
  O  O117  1  0.472470  0.676400  0.119410  1.0  -0.6173
  O  O118  1  0.534250  0.881000  0.938840  1.0  -0.7265
  O  O119  1  0.906590  0.593900  0.533860  1.0  -0.6796
  O  O120  1  0.632520  0.553700  0.509530  1.0  -0.6599
  O  O121  1  0.593430  0.329900  0.540580  1.0  -0.7332
  O  O122  1  0.006790  0.958900  0.425200  1.0  -0.7644
  O  O123  1  0.775000  0.469700  0.544540  1.0  -0.143
  O  O124  1  0.027530  0.176400  0.380590  1.0  -0.6158
  O  O125  1  0.965750  0.381000  0.561160  1.0  -0.7266
  O  O126  1  0.406590  0.093900  0.533860  1.0  -0.6796
  O  O127  1  0.132520  0.053700  0.509530  1.0  -0.6599
  O  O128  1  0.093430  0.829900  0.540580  1.0  -0.7332
  O  O129  1  0.506790  0.458900  0.425200  1.0  -0.7642
  O  O130  1  0.275000  0.969700  0.544540  1.0  -0.143
  O  O131  1  0.527530  0.676400  0.380590  1.0  -0.616
  O  O132  1  0.465750  0.881000  0.561160  1.0  -0.7266
  O  O133  1  0.906590  0.406100  0.033860  1.0  -0.6795
  O  O134  1  0.632520  0.446300  0.009530  1.0  -0.6603
  O  O135  1  0.593430  0.670100  0.040580  1.0  -0.7337
  O  O136  1  0.006790  0.041100  0.925200  1.0  -0.7646
  O  O137  1  0.775000  0.530300  0.044540  1.0  -0.1448
  O  O138  1  0.027530  0.823600  0.880590  1.0  -0.6171
  O  O139  1  0.965750  0.619000  0.061160  1.0  -0.7276
  O  O140  1  0.406590  0.906100  0.033860  1.0  -0.6795
  O  O141  1  0.132520  0.946300  0.009530  1.0  -0.6613
  O  O142  1  0.093430  0.170100  0.040580  1.0  -0.7337
  O  O143  1  0.506790  0.541100  0.925200  1.0  -0.7646
  O  O144  1  0.275000  0.030300  0.044540  1.0  -0.1448
  O  O145  1  0.527530  0.323600  0.880590  1.0  -0.6174
  O  O146  1  0.465750  0.119000  0.061160  1.0  -0.7276
  O  O147  1  0.093410  0.406100  0.466140  1.0  -0.679
  O  O148  1  0.367480  0.446300  0.490470  1.0  -0.6623
  O  O149  1  0.406570  0.670100  0.459420  1.0  -0.7328
  O  O150  1  0.993210  0.041100  0.574800  1.0  -0.7624
  O  O151  1  0.225000  0.530300  0.455460  1.0  -0.145
  O  O152  1  0.972470  0.823600  0.619410  1.0  -0.6172
  O  O153  1  0.034250  0.619000  0.438840  1.0  -0.7269
  O  O154  1  0.593410  0.906100  0.466140  1.0  -0.679
  O  O155  1  0.867480  0.946300  0.490470  1.0  -0.6632
  O  O156  1  0.906570  0.170100  0.459420  1.0  -0.7328
  O  O157  1  0.493210  0.541100  0.574800  1.0  -0.7624
  O  O158  1  0.725000  0.030300  0.455460  1.0  -0.145
  O  O159  1  0.472470  0.323600  0.619410  1.0  -0.6174
  O  O160  1  0.534250  0.119000  0.438840  1.0  -0.7269
  O  O161  1  0.000000  0.065600  0.250000  1.0  -0.1595
  O  O162  1  0.500000  0.565600  0.250000  1.0  -0.1595
  O  O163  1  0.000000  0.934400  0.750000  1.0  -0.1585
  O  O164  1  0.500000  0.434400  0.750000  1.0  -0.1585
