# generated using pymatgen
data_Al8Si3(P2O11)3
_symmetry_space_group_name_H-M   'P 1'
_cell_length_a   13.15870000
_cell_length_b   13.15870000
_cell_length_c   16.10120000
_cell_angle_alpha   90.00000000
_cell_angle_beta   90.00000000
_cell_angle_gamma   120.00000000
_symmetry_Int_Tables_number   1
_chemical_formula_structural   Al8Si3(P2O11)3
_chemical_formula_sum   'Al16 Si6 P12 O66'
_cell_volume   2414.43127340
_cell_formula_units_Z   2
loop_
 _symmetry_equiv_pos_site_id
 _symmetry_equiv_pos_as_xyz
  1  'x, y, z'
loop_
 _atom_site_type_symbol
 _atom_site_label
 _atom_site_symmetry_multiplicity
 _atom_site_fract_x
 _atom_site_fract_y
 _atom_site_fract_z
 _atom_site_occupancy
 _atom_site_charge
  Al  Al1  1  0.121900  0.459000  0.606300  1.0  1.9666
  Al  Al2  1  0.112700  0.450100  0.242900  1.0  1.9151
  Al  Al3  1  0.541000  0.662900  0.606300  1.0  1.9663
  Al  Al4  1  0.549900  0.662600  0.242900  1.0  1.9145
  Al  Al5  1  0.337100  0.878100  0.606300  1.0  1.9643
  Al  Al6  1  0.337400  0.887300  0.242900  1.0  1.9149
  Al  Al7  1  0.878100  0.541000  0.106300  1.0  1.9655
  Al  Al8  1  0.887300  0.549900  0.742900  1.0  1.9158
  Al  Al9  1  0.459000  0.337100  0.106300  1.0  1.964
  Al  Al10  1  0.450100  0.337400  0.742900  1.0  1.9136
  Al  Al11  1  0.662900  0.121900  0.106300  1.0  1.9657
  Al  Al12  1  0.662600  0.112700  0.742900  1.0  1.9141
  Al  Al13  1  0.333333  0.666667  0.015500  1.0  1.4067
  Al  Al14  1  0.333333  0.666667  0.842800  1.0  1.3953
  Al  Al15  1  0.666667  0.333333  0.515500  1.0  1.4067
  Al  Al16  1  0.666667  0.333333  0.342800  1.0  1.3953
  Si  Si17  1  0.212000  0.527600  0.423700  1.0  1.7911
  Si  Si18  1  0.472400  0.684400  0.423700  1.0  1.7844
  Si  Si19  1  0.315600  0.788000  0.423700  1.0  1.7866
  Si  Si20  1  0.788000  0.472400  0.923700  1.0  1.7883
  Si  Si21  1  0.527600  0.315600  0.923700  1.0  1.7834
  Si  Si22  1  0.684400  0.212000  0.923700  1.0  1.7876
  P  P23  1  0.148000  0.671500  0.147200  1.0  1.7821
  P  P24  1  0.158400  0.681800  0.706400  1.0  1.686
  P  P25  1  0.328500  0.476500  0.147200  1.0  1.7854
  P  P26  1  0.318200  0.476600  0.706400  1.0  1.6884
  P  P27  1  0.523500  0.852000  0.147200  1.0  1.7837
  P  P28  1  0.523400  0.841600  0.706400  1.0  1.6874
  P  P29  1  0.852000  0.328500  0.647200  1.0  1.7838
  P  P30  1  0.841600  0.318200  0.206400  1.0  1.6873
  P  P31  1  0.671500  0.523500  0.647200  1.0  1.7856
  P  P32  1  0.681800  0.523400  0.206400  1.0  1.6878
  P  P33  1  0.476500  0.148000  0.647200  1.0  1.7811
  P  P34  1  0.476600  0.158400  0.206400  1.0  1.6865
  O  O35  1  0.145800  0.586500  0.215600  1.0  -1.0045
  O  O36  1  0.020300  0.640400  0.123700  1.0  -0.9498
  O  O37  1  0.219100  0.803900  0.179600  1.0  -0.9165
  O  O38  1  0.218300  0.670500  0.069500  1.0  -0.9164
  O  O39  1  0.237100  0.817900  0.682200  1.0  -0.8481
  O  O40  1  0.147900  0.591800  0.638300  1.0  -1.0361
  O  O41  1  0.138000  0.453400  0.501900  1.0  -0.8969
  O  O42  1  0.036000  0.666800  0.736000  1.0  -0.7991
  O  O43  1  0.150700  0.463000  0.338800  1.0  -0.9708
  O  O44  1  0.214400  0.675200  0.793800  1.0  -0.8669
  O  O45  1  0.344000  0.554800  0.425500  1.0  -0.8697
  O  O46  1  0.413500  0.559300  0.215600  1.0  -1.0042
  O  O47  1  0.359600  0.379900  0.123700  1.0  -0.9492
  O  O48  1  0.196100  0.415200  0.179600  1.0  -0.9203
  O  O49  1  0.329500  0.547800  0.069500  1.0  -0.9179
  O  O50  1  0.182100  0.419200  0.682200  1.0  -0.8492
  O  O51  1  0.408200  0.556100  0.638300  1.0  -1.0359
  O  O52  1  0.546600  0.684600  0.501900  1.0  -0.8961
  O  O53  1  0.333200  0.369200  0.736000  1.0  -0.7997
  O  O54  1  0.537000  0.687700  0.338800  1.0  -0.9643
  O  O55  1  0.324800  0.539200  0.793800  1.0  -0.8669
  O  O56  1  0.445200  0.789200  0.425500  1.0  -0.869
  O  O57  1  0.440700  0.854200  0.215600  1.0  -1.0041
  O  O58  1  0.620100  0.979700  0.123700  1.0  -0.945
  O  O59  1  0.584800  0.780900  0.179600  1.0  -0.916
  O  O60  1  0.452200  0.781700  0.069500  1.0  -0.9175
  O  O61  1  0.580800  0.762900  0.682200  1.0  -0.8488
  O  O62  1  0.443900  0.852100  0.638300  1.0  -1.0359
  O  O63  1  0.315400  0.862000  0.501900  1.0  -0.8966
  O  O64  1  0.630800  0.964000  0.736000  1.0  -0.8007
  O  O65  1  0.312300  0.849300  0.338800  1.0  -0.9677
  O  O66  1  0.460800  0.785600  0.793800  1.0  -0.8665
  O  O67  1  0.210800  0.656000  0.425500  1.0  -0.868
  O  O68  1  0.854200  0.413500  0.715600  1.0  -1.0046
  O  O69  1  0.979700  0.359600  0.623700  1.0  -0.9486
  O  O70  1  0.780900  0.196100  0.679600  1.0  -0.9181
  O  O71  1  0.781700  0.329500  0.569500  1.0  -0.916
  O  O72  1  0.762900  0.182100  0.182200  1.0  -0.8488
  O  O73  1  0.852100  0.408200  0.138300  1.0  -1.0361
  O  O74  1  0.862000  0.546600  0.001900  1.0  -0.8974
  O  O75  1  0.964000  0.333200  0.236000  1.0  -0.7999
  O  O76  1  0.849300  0.537000  0.838800  1.0  -0.9681
  O  O77  1  0.785600  0.324800  0.293800  1.0  -0.8651
  O  O78  1  0.656000  0.445200  0.925500  1.0  -0.867
  O  O79  1  0.586500  0.440700  0.715600  1.0  -1.0044
  O  O80  1  0.640400  0.620100  0.623700  1.0  -0.9483
  O  O81  1  0.803900  0.584800  0.679600  1.0  -0.9216
  O  O82  1  0.670500  0.452200  0.569500  1.0  -0.9189
  O  O83  1  0.817900  0.580800  0.182200  1.0  -0.8529
  O  O84  1  0.591800  0.443900  0.138300  1.0  -1.0372
  O  O85  1  0.453400  0.315400  0.001900  1.0  -0.8954
  O  O86  1  0.666800  0.630800  0.236000  1.0  -0.7996
  O  O87  1  0.463000  0.312300  0.838800  1.0  -0.9668
  O  O88  1  0.675200  0.460800  0.293800  1.0  -0.8675
  O  O89  1  0.554800  0.210800  0.925500  1.0  -0.869
  O  O90  1  0.559300  0.145800  0.715600  1.0  -1.004
  O  O91  1  0.379900  0.020300  0.623700  1.0  -0.9463
  O  O92  1  0.415200  0.219100  0.679600  1.0  -0.9147
  O  O93  1  0.547800  0.218300  0.569500  1.0  -0.9171
  O  O94  1  0.419200  0.237100  0.182200  1.0  -0.8467
  O  O95  1  0.556100  0.147900  0.138300  1.0  -1.0364
  O  O96  1  0.684600  0.138000  0.001900  1.0  -0.8941
  O  O97  1  0.369200  0.036000  0.236000  1.0  -0.8024
  O  O98  1  0.687700  0.150700  0.838800  1.0  -0.9675
  O  O99  1  0.539200  0.214400  0.293800  1.0  -0.8669
  O  O100  1  0.789200  0.344000  0.925500  1.0  -0.8693
