# generated using pymatgen
data_FeSn3(C5N2)3
_symmetry_space_group_name_H-M   'P 1'
_cell_length_a   17.99500000
_cell_length_b   15.57000000
_cell_length_c   12.36000000
_cell_angle_alpha   90.00000000
_cell_angle_beta   92.60000000
_cell_angle_gamma   90.00000000
_symmetry_Int_Tables_number   1
_chemical_formula_structural   FeSn3(C5N2)3
_chemical_formula_sum   'Fe4 Sn12 C60 N24'
_cell_volume   3459.48640430
_cell_formula_units_Z   4
loop_
 _symmetry_equiv_pos_site_id
 _symmetry_equiv_pos_as_xyz
  1  'x, y, z'
loop_
 _atom_site_type_symbol
 _atom_site_label
 _atom_site_symmetry_multiplicity
 _atom_site_fract_x
 _atom_site_fract_y
 _atom_site_fract_z
 _atom_site_occupancy
 _atom_site_charge
  Fe  Fe1  1  0.750000  0.250000  0.500000  1.0  -0.4017
  Fe  Fe2  1  0.250000  0.250000  0.000000  1.0  -0.4017
  Fe  Fe3  1  0.250000  0.750000  0.500000  1.0  -0.4017
  Fe  Fe4  1  0.750000  0.750000  0.000000  1.0  -0.4017
  Sn  Sn5  1  0.724900  0.539000  0.299700  1.0  0.8727
  Sn  Sn6  1  0.224900  0.039000  0.299700  1.0  0.8727
  Sn  Sn7  1  0.275100  0.539000  0.200300  1.0  0.8725
  Sn  Sn8  1  0.775100  0.039000  0.200300  1.0  0.8725
  Sn  Sn9  1  0.275100  0.461000  0.700300  1.0  0.8718
  Sn  Sn10  1  0.775100  0.961000  0.700300  1.0  0.8718
  Sn  Sn11  1  0.724900  0.461000  0.799700  1.0  0.8721
  Sn  Sn12  1  0.224900  0.961000  0.799700  1.0  0.8721
  Sn  Sn13  1  0.500000  0.259400  0.250000  1.0  0.8354
  Sn  Sn14  1  0.000000  0.759400  0.250000  1.0  0.8354
  Sn  Sn15  1  0.500000  0.740600  0.750000  1.0  0.8358
  Sn  Sn16  1  0.000000  0.240600  0.750000  1.0  0.8358
  C  C17  1  0.768100  0.358300  0.437200  1.0  0.1981
  C  C18  1  0.657400  0.250900  0.419000  1.0  0.2042
  C  C19  1  0.792200  0.191500  0.382200  1.0  0.23
  C  C20  1  0.801300  0.626100  0.380900  1.0  -0.057
  C  C21  1  0.617600  0.518000  0.363400  1.0  -0.0602
  C  C22  1  0.743600  0.472500  0.152700  1.0  -0.0468
  C  C23  1  0.563900  0.330400  0.138900  1.0  -0.0547
  C  C24  1  0.268100  0.858300  0.437200  1.0  0.1981
  C  C25  1  0.157400  0.750900  0.419000  1.0  0.2042
  C  C26  1  0.292200  0.691500  0.382200  1.0  0.23
  C  C27  1  0.301300  0.126100  0.380900  1.0  -0.057
  C  C28  1  0.117600  0.018000  0.363400  1.0  -0.0602
  C  C29  1  0.243600  0.972500  0.152700  1.0  -0.0468
  C  C30  1  0.063900  0.830400  0.138900  1.0  -0.0547
  C  C31  1  0.231900  0.358300  0.062800  1.0  0.1966
  C  C32  1  0.342600  0.250900  0.081000  1.0  0.2046
  C  C33  1  0.207800  0.191500  0.117800  1.0  0.2306
  C  C34  1  0.198700  0.626100  0.119100  1.0  -0.0572
  C  C35  1  0.382400  0.518000  0.136600  1.0  -0.0585
  C  C36  1  0.256400  0.472500  0.347300  1.0  -0.0472
  C  C37  1  0.436100  0.330400  0.361100  1.0  -0.0533
  C  C38  1  0.731900  0.858300  0.062800  1.0  0.1966
  C  C39  1  0.842600  0.750900  0.081000  1.0  0.2046
  C  C40  1  0.707800  0.691500  0.117800  1.0  0.2306
  C  C41  1  0.698700  0.126100  0.119100  1.0  -0.0572
  C  C42  1  0.882400  0.018000  0.136600  1.0  -0.0585
  C  C43  1  0.756400  0.972500  0.347300  1.0  -0.0472
  C  C44  1  0.936100  0.830400  0.361100  1.0  -0.0533
  C  C45  1  0.231900  0.641700  0.562800  1.0  0.1931
  C  C46  1  0.342600  0.749100  0.581000  1.0  0.2047
  C  C47  1  0.207800  0.808500  0.617800  1.0  0.2301
  C  C48  1  0.198700  0.373900  0.619100  1.0  -0.057
  C  C49  1  0.382400  0.482000  0.636600  1.0  -0.0588
  C  C50  1  0.256400  0.527500  0.847300  1.0  -0.0472
  C  C51  1  0.436100  0.669600  0.861100  1.0  -0.054
  C  C52  1  0.731900  0.141700  0.562800  1.0  0.1931
  C  C53  1  0.842600  0.249100  0.581000  1.0  0.2047
  C  C54  1  0.707800  0.308500  0.617800  1.0  0.2301
  C  C55  1  0.698700  0.873900  0.619100  1.0  -0.057
  C  C56  1  0.882400  0.982000  0.636600  1.0  -0.0588
  C  C57  1  0.756400  0.027500  0.847300  1.0  -0.0472
  C  C58  1  0.936100  0.169600  0.861100  1.0  -0.054
  C  C59  1  0.768100  0.641700  0.937200  1.0  0.1947
  C  C60  1  0.657400  0.749100  0.919000  1.0  0.2044
  C  C61  1  0.792200  0.808500  0.882200  1.0  0.2291
  C  C62  1  0.801300  0.373900  0.880900  1.0  -0.0571
  C  C63  1  0.617600  0.482000  0.863400  1.0  -0.0605
  C  C64  1  0.743600  0.527500  0.652700  1.0  -0.0459
  C  C65  1  0.563900  0.669600  0.638900  1.0  -0.0556
  C  C66  1  0.268100  0.141700  0.937200  1.0  0.1947
  C  C67  1  0.157400  0.249100  0.919000  1.0  0.2044
  C  C68  1  0.292200  0.308500  0.882200  1.0  0.2291
  C  C69  1  0.301300  0.873900  0.880900  1.0  -0.0571
  C  C70  1  0.117600  0.982000  0.863400  1.0  -0.0605
  C  C71  1  0.243600  0.027500  0.652700  1.0  -0.0459
  C  C72  1  0.063900  0.169600  0.638900  1.0  -0.0556
  C  C73  1  0.500000  0.117200  0.250000  1.0  -0.0922
  C  C74  1  0.000000  0.617200  0.250000  1.0  -0.0922
  C  C75  1  0.500000  0.882800  0.750000  1.0  -0.0933
  C  C76  1  0.000000  0.382800  0.750000  1.0  -0.0933
  N  N77  1  0.776200  0.425400  0.396400  1.0  -0.4967
  N  N78  1  0.602300  0.255200  0.368600  1.0  -0.437
  N  N79  1  0.815500  0.156200  0.309100  1.0  -0.5202
  N  N80  1  0.276200  0.925400  0.396400  1.0  -0.4967
  N  N81  1  0.102300  0.755200  0.368600  1.0  -0.437
  N  N82  1  0.315500  0.656200  0.309100  1.0  -0.5202
  N  N83  1  0.223800  0.425400  0.103600  1.0  -0.4979
  N  N84  1  0.397700  0.255200  0.131400  1.0  -0.4389
  N  N85  1  0.184500  0.156200  0.190900  1.0  -0.5205
  N  N86  1  0.723800  0.925400  0.103600  1.0  -0.4979
  N  N87  1  0.897700  0.755200  0.131400  1.0  -0.4389
  N  N88  1  0.684500  0.656200  0.190900  1.0  -0.5205
  N  N89  1  0.223800  0.574600  0.603600  1.0  -0.4953
  N  N90  1  0.397700  0.744800  0.631400  1.0  -0.439
  N  N91  1  0.184500  0.843800  0.690900  1.0  -0.5221
  N  N92  1  0.723800  0.074600  0.603600  1.0  -0.4953
  N  N93  1  0.897700  0.244800  0.631400  1.0  -0.439
  N  N94  1  0.684500  0.343800  0.690900  1.0  -0.5221
  N  N95  1  0.776200  0.574600  0.896400  1.0  -0.4955
  N  N96  1  0.602300  0.744800  0.868600  1.0  -0.4369
  N  N97  1  0.815500  0.843800  0.809100  1.0  -0.5209
  N  N98  1  0.276200  0.074600  0.896400  1.0  -0.4955
  N  N99  1  0.102300  0.244800  0.868600  1.0  -0.4369
  N  N100  1  0.315500  0.343800  0.809100  1.0  -0.5209
