# generated using pymatgen
data_ZnH8C13N5
_symmetry_space_group_name_H-M   'P 1'
_cell_length_a   20.30670000
_cell_length_b   20.30670000
_cell_length_c   20.30670000
_cell_angle_alpha   109.47120000
_cell_angle_beta   109.47120000
_cell_angle_gamma   109.47120000
_symmetry_Int_Tables_number   1
_chemical_formula_structural   ZnH8C13N5
_chemical_formula_sum   'Zn12 H96 C156 N60'
_cell_volume   6446.09199975
_cell_formula_units_Z   12
loop_
 _symmetry_equiv_pos_site_id
 _symmetry_equiv_pos_as_xyz
  1  'x, y, z'
loop_
 _atom_site_type_symbol
 _atom_site_label
 _atom_site_symmetry_multiplicity
 _atom_site_fract_x
 _atom_site_fract_y
 _atom_site_fract_z
 _atom_site_occupancy
 _atom_site_charge
  Zn  Zn1  1  0.221040  0.610520  0.610520  1.0  0.9124
  Zn  Zn2  1  0.000000  0.389480  0.610520  1.0  0.9023
  Zn  Zn3  1  0.610520  0.221040  0.610520  1.0  0.9131
  Zn  Zn4  1  0.610520  0.000000  0.389480  1.0  0.9021
  Zn  Zn5  1  0.610520  0.610520  0.221040  1.0  0.9128
  Zn  Zn6  1  0.389480  0.610520  0.000000  1.0  0.9022
  Zn  Zn7  1  0.778960  0.389480  0.389480  1.0  0.9137
  Zn  Zn8  1  0.000000  0.610520  0.389480  1.0  0.9031
  Zn  Zn9  1  0.389480  0.778960  0.389480  1.0  0.9126
  Zn  Zn10  1  0.389480  0.000000  0.610520  1.0  0.9023
  Zn  Zn11  1  0.389480  0.389480  0.778960  1.0  0.9136
  Zn  Zn12  1  0.610520  0.389480  0.000000  1.0  0.9007
  H  H13  1  0.245200  0.588700  0.464100  1.0  0.0816
  H  H14  1  0.310600  0.530200  0.401400  1.0  0.0873
  H  H15  1  0.875400  0.411300  0.656500  1.0  0.0848
  H  H16  1  0.871200  0.469800  0.780400  1.0  0.0898
  H  H17  1  0.124600  0.781100  0.535900  1.0  0.0843
  H  H18  1  0.128800  0.909200  0.598600  1.0  0.0929
  H  H19  1  0.754800  0.218900  0.343500  1.0  0.0859
  H  H20  1  0.689400  0.090800  0.219600  1.0  0.0895
  H  H21  1  0.343500  0.588700  0.124600  1.0  0.0834
  H  H22  1  0.219600  0.530200  0.128800  1.0  0.0893
  H  H23  1  0.535900  0.411300  0.754800  1.0  0.0826
  H  H24  1  0.598600  0.469800  0.689400  1.0  0.0879
  H  H25  1  0.656500  0.781100  0.245200  1.0  0.0832
  H  H26  1  0.780400  0.909200  0.310600  1.0  0.0904
  H  H27  1  0.464100  0.218900  0.875400  1.0  0.085
  H  H28  1  0.401400  0.090800  0.871200  1.0  0.0909
  H  H29  1  0.464100  0.245200  0.588700  1.0  0.0831
  H  H30  1  0.401400  0.310600  0.530200  1.0  0.0886
  H  H31  1  0.656500  0.875400  0.411300  1.0  0.0838
  H  H32  1  0.780400  0.871200  0.469800  1.0  0.0926
  H  H33  1  0.535900  0.124600  0.781100  1.0  0.0845
  H  H34  1  0.598600  0.128800  0.909200  1.0  0.0914
  H  H35  1  0.343500  0.754800  0.218900  1.0  0.0849
  H  H36  1  0.219600  0.689400  0.090800  1.0  0.0903
  H  H37  1  0.124600  0.343500  0.588700  1.0  0.0846
  H  H38  1  0.128800  0.219600  0.530200  1.0  0.0911
  H  H39  1  0.754800  0.535900  0.411300  1.0  0.0822
  H  H40  1  0.689400  0.598600  0.469800  1.0  0.0907
  H  H41  1  0.245200  0.656500  0.781100  1.0  0.083
  H  H42  1  0.310600  0.780400  0.909200  1.0  0.0882
  H  H43  1  0.875400  0.464100  0.218900  1.0  0.0846
  H  H44  1  0.871200  0.401400  0.090800  1.0  0.0938
  H  H45  1  0.588700  0.464100  0.245200  1.0  0.0831
  H  H46  1  0.530200  0.401400  0.310600  1.0  0.0917
  H  H47  1  0.411300  0.656500  0.875400  1.0  0.083
  H  H48  1  0.469800  0.780400  0.871200  1.0  0.0892
  H  H49  1  0.781100  0.535900  0.124600  1.0  0.0852
  H  H50  1  0.909200  0.598600  0.128800  1.0  0.0925
  H  H51  1  0.218900  0.343500  0.754800  1.0  0.0843
  H  H52  1  0.090800  0.219600  0.689400  1.0  0.0908
  H  H53  1  0.588700  0.124600  0.343500  1.0  0.084
  H  H54  1  0.530200  0.128800  0.219600  1.0  0.0898
  H  H55  1  0.411300  0.754800  0.535900  1.0  0.0809
  H  H56  1  0.469800  0.689400  0.598600  1.0  0.0897
  H  H57  1  0.781100  0.245200  0.656500  1.0  0.0844
  H  H58  1  0.909200  0.310600  0.780400  1.0  0.0895
  H  H59  1  0.218900  0.875400  0.464100  1.0  0.0833
  H  H60  1  0.090800  0.871200  0.401400  1.0  0.0935
  H  H61  1  0.754800  0.411300  0.535900  1.0  0.0818
  H  H62  1  0.689400  0.469800  0.598600  1.0  0.0875
  H  H63  1  0.124600  0.588700  0.343500  1.0  0.0842
  H  H64  1  0.128800  0.530200  0.219600  1.0  0.0898
  H  H65  1  0.875400  0.218900  0.464100  1.0  0.0831
  H  H66  1  0.871200  0.090800  0.401400  1.0  0.0924
  H  H67  1  0.245200  0.781100  0.656500  1.0  0.0845
  H  H68  1  0.310600  0.909200  0.780400  1.0  0.0892
  H  H69  1  0.656500  0.411300  0.875400  1.0  0.0841
  H  H70  1  0.780400  0.469800  0.871200  1.0  0.0891
  H  H71  1  0.464100  0.588700  0.245200  1.0  0.082
  H  H72  1  0.401400  0.530200  0.310600  1.0  0.0884
  H  H73  1  0.343500  0.218900  0.754800  1.0  0.0845
  H  H74  1  0.219600  0.090800  0.689400  1.0  0.091
  H  H75  1  0.535900  0.781100  0.124600  1.0  0.0855
  H  H76  1  0.598600  0.909200  0.128800  1.0  0.0913
  H  H77  1  0.535900  0.754800  0.411300  1.0  0.0826
  H  H78  1  0.598600  0.689400  0.469800  1.0  0.0888
  H  H79  1  0.343500  0.124600  0.588700  1.0  0.0841
  H  H80  1  0.219600  0.128800  0.530200  1.0  0.092
  H  H81  1  0.464100  0.875400  0.218900  1.0  0.0831
  H  H82  1  0.401400  0.871200  0.090800  1.0  0.0918
  H  H83  1  0.656500  0.245200  0.781100  1.0  0.0833
  H  H84  1  0.780400  0.310600  0.909200  1.0  0.09
  H  H85  1  0.875400  0.656500  0.411300  1.0  0.0838
  H  H86  1  0.871200  0.780400  0.469800  1.0  0.0915
  H  H87  1  0.245200  0.464100  0.588700  1.0  0.0831
  H  H88  1  0.310600  0.401400  0.530200  1.0  0.0904
  H  H89  1  0.754800  0.343500  0.218900  1.0  0.0836
  H  H90  1  0.689400  0.219600  0.090800  1.0  0.0889
  H  H91  1  0.124600  0.535900  0.781100  1.0  0.0855
  H  H92  1  0.128800  0.598600  0.909200  1.0  0.0935
  H  H93  1  0.411300  0.535900  0.754800  1.0  0.0824
  H  H94  1  0.469800  0.598600  0.689400  1.0  0.0909
  H  H95  1  0.588700  0.343500  0.124600  1.0  0.0838
  H  H96  1  0.530200  0.219600  0.128800  1.0  0.0884
  H  H97  1  0.218900  0.464100  0.875400  1.0  0.0846
  H  H98  1  0.090800  0.401400  0.871200  1.0  0.0935
  H  H99  1  0.781100  0.656500  0.245200  1.0  0.0837
  H  H100  1  0.909200  0.780400  0.310600  1.0  0.0902
  H  H101  1  0.411300  0.875400  0.656500  1.0  0.0839
  H  H102  1  0.469800  0.871200  0.780400  1.0  0.0903
  H  H103  1  0.588700  0.245200  0.464100  1.0  0.0825
  H  H104  1  0.530200  0.310600  0.401400  1.0  0.0891
  H  H105  1  0.218900  0.754800  0.343500  1.0  0.0853
  H  H106  1  0.090800  0.689400  0.219600  1.0  0.0898
  H  H107  1  0.781100  0.124600  0.535900  1.0  0.084
  H  H108  1  0.909200  0.128800  0.598600  1.0  0.0935
  C  C109  1  0.261300  0.548200  0.479700  1.0  0.1263
  C  C110  1  0.298200  0.515600  0.444000  1.0  -0.1181
  C  C111  1  0.931500  0.451800  0.713100  1.0  0.1348
  C  C112  1  0.928400  0.484400  0.782600  1.0  -0.1176
  C  C113  1  0.068500  0.781600  0.520300  1.0  0.1338
  C  C114  1  0.071600  0.854200  0.556000  1.0  -0.1199
  C  C115  1  0.738700  0.218400  0.286900  1.0  0.1268
  C  C116  1  0.701800  0.145800  0.217400  1.0  -0.1239
  C  C117  1  0.286900  0.548200  0.068500  1.0  0.1362
  C  C118  1  0.217400  0.515600  0.071600  1.0  -0.1163
  C  C119  1  0.520300  0.451800  0.738700  1.0  0.1264
  C  C120  1  0.556000  0.484400  0.701800  1.0  -0.1226
  C  C121  1  0.713100  0.781600  0.261300  1.0  0.1262
  C  C122  1  0.782600  0.854200  0.298200  1.0  -0.1224
  C  C123  1  0.479700  0.218400  0.931500  1.0  0.1336
  C  C124  1  0.444000  0.145800  0.928400  1.0  -0.1209
  C  C125  1  0.319000  0.463800  0.463800  1.0  -0.1361
  C  C126  1  0.367000  0.434900  0.434900  1.0  0.3829
  C  C127  1  0.000000  0.536200  0.855200  1.0  -0.131
  C  C128  1  0.000000  0.565100  0.932100  1.0  0.3703
  C  C129  1  0.000000  0.855200  0.536200  1.0  -0.1306
  C  C130  1  0.000000  0.932100  0.565100  1.0  0.3767
  C  C131  1  0.681000  0.144800  0.144800  1.0  -0.128
  C  C132  1  0.633000  0.067900  0.067900  1.0  0.3773
  C  C133  1  0.898500  0.373800  0.524700  1.0  0.0573
  C  C134  1  0.475300  0.373800  0.849100  1.0  0.0636
  C  C135  1  0.479700  0.261300  0.548200  1.0  0.1251
  C  C136  1  0.444000  0.298200  0.515600  1.0  -0.1235
  C  C137  1  0.713100  0.931500  0.451800  1.0  0.1354
  C  C138  1  0.782600  0.928400  0.484400  1.0  -0.1249
  C  C139  1  0.520300  0.068500  0.781600  1.0  0.1309
  C  C140  1  0.556000  0.071600  0.854200  1.0  -0.1204
  C  C141  1  0.286900  0.738700  0.218400  1.0  0.1268
  C  C142  1  0.217400  0.701800  0.145800  1.0  -0.1225
  C  C143  1  0.068500  0.286900  0.548200  1.0  0.1344
  C  C144  1  0.071600  0.217400  0.515600  1.0  -0.1198
  C  C145  1  0.738700  0.520300  0.451800  1.0  0.1277
  C  C146  1  0.701800  0.556000  0.484400  1.0  -0.1263
  C  C147  1  0.261300  0.713100  0.781600  1.0  0.1243
  C  C148  1  0.298200  0.782600  0.854200  1.0  -0.1186
  C  C149  1  0.931500  0.479700  0.218400  1.0  0.1323
  C  C150  1  0.928400  0.444000  0.145800  1.0  -0.1228
  C  C151  1  0.463800  0.319000  0.463800  1.0  -0.1352
  C  C152  1  0.434900  0.367000  0.434900  1.0  0.382
  C  C153  1  0.855200  0.000000  0.536200  1.0  -0.1298
  C  C154  1  0.932100  0.000000  0.565100  1.0  0.3751
  C  C155  1  0.536200  0.000000  0.855200  1.0  -0.1316
  C  C156  1  0.565100  0.000000  0.932100  1.0  0.3699
  C  C157  1  0.144800  0.681000  0.144800  1.0  -0.1273
  C  C158  1  0.067900  0.633000  0.067900  1.0  0.3788
  C  C159  1  0.524700  0.898500  0.373800  1.0  0.0551
  C  C160  1  0.849100  0.475300  0.373800  1.0  0.0619
  C  C161  1  0.548200  0.479700  0.261300  1.0  0.1271
  C  C162  1  0.515600  0.444000  0.298200  1.0  -0.126
  C  C163  1  0.451800  0.713100  0.931500  1.0  0.1332
  C  C164  1  0.484400  0.782600  0.928400  1.0  -0.1164
  C  C165  1  0.781600  0.520300  0.068500  1.0  0.1322
  C  C166  1  0.854200  0.556000  0.071600  1.0  -0.1235
  C  C167  1  0.218400  0.286900  0.738700  1.0  0.1243
  C  C168  1  0.145800  0.217400  0.701800  1.0  -0.1211
  C  C169  1  0.548200  0.068500  0.286900  1.0  0.1324
  C  C170  1  0.515600  0.071600  0.217400  1.0  -0.123
  C  C171  1  0.451800  0.738700  0.520300  1.0  0.1249
  C  C172  1  0.484400  0.701800  0.556000  1.0  -0.1204
  C  C173  1  0.781600  0.261300  0.713100  1.0  0.1248
  C  C174  1  0.854200  0.298200  0.782600  1.0  -0.1244
  C  C175  1  0.218400  0.931500  0.479700  1.0  0.1335
  C  C176  1  0.145800  0.928400  0.444000  1.0  -0.1245
  C  C177  1  0.463800  0.463800  0.319000  1.0  -0.1358
  C  C178  1  0.434900  0.434900  0.367000  1.0  0.3808
  C  C179  1  0.536200  0.855200  0.000000  1.0  -0.1323
  C  C180  1  0.565100  0.932100  0.000000  1.0  0.3683
  C  C181  1  0.855200  0.536200  0.000000  1.0  -0.1321
  C  C182  1  0.932100  0.565100  0.000000  1.0  0.3714
  C  C183  1  0.144800  0.144800  0.681000  1.0  -0.1263
  C  C184  1  0.067900  0.067900  0.633000  1.0  0.3826
  C  C185  1  0.373800  0.524700  0.898500  1.0  0.0546
  C  C186  1  0.373800  0.849100  0.475300  1.0  0.063
  C  C187  1  0.738700  0.451800  0.520300  1.0  0.1275
  C  C188  1  0.701800  0.484400  0.556000  1.0  -0.1174
  C  C189  1  0.068500  0.548200  0.286900  1.0  0.1359
  C  C190  1  0.071600  0.515600  0.217400  1.0  -0.1196
  C  C191  1  0.931500  0.218400  0.479700  1.0  0.1349
  C  C192  1  0.928400  0.145800  0.444000  1.0  -0.1193
  C  C193  1  0.261300  0.781600  0.713100  1.0  0.1292
  C  C194  1  0.298200  0.854200  0.782600  1.0  -0.1237
  C  C195  1  0.713100  0.451800  0.931500  1.0  0.1355
  C  C196  1  0.782600  0.484400  0.928400  1.0  -0.1172
  C  C197  1  0.479700  0.548200  0.261300  1.0  0.1269
  C  C198  1  0.444000  0.515600  0.298200  1.0  -0.1196
  C  C199  1  0.286900  0.218400  0.738700  1.0  0.1286
  C  C200  1  0.217400  0.145800  0.701800  1.0  -0.1238
  C  C201  1  0.520300  0.781600  0.068500  1.0  0.1342
  C  C202  1  0.556000  0.854200  0.071600  1.0  -0.1195
  C  C203  1  0.681000  0.536200  0.536200  1.0  -0.1351
  C  C204  1  0.633000  0.565100  0.565100  1.0  0.3825
  C  C205  1  0.000000  0.463800  0.144800  1.0  -0.1332
  C  C206  1  0.000000  0.434900  0.067900  1.0  0.3714
  C  C207  1  0.000000  0.144800  0.463800  1.0  -0.1339
  C  C208  1  0.000000  0.067900  0.434900  1.0  0.3745
  C  C209  1  0.319000  0.855200  0.855200  1.0  -0.1273
  C  C210  1  0.367000  0.932100  0.932100  1.0  0.3832
  C  C211  1  0.101500  0.626200  0.475300  1.0  0.057
  C  C212  1  0.524700  0.626200  0.150900  1.0  0.0639
  C  C213  1  0.520300  0.738700  0.451800  1.0  0.1284
  C  C214  1  0.556000  0.701800  0.484400  1.0  -0.1236
  C  C215  1  0.286900  0.068500  0.548200  1.0  0.1368
  C  C216  1  0.217400  0.071600  0.515600  1.0  -0.1242
  C  C217  1  0.479700  0.931500  0.218400  1.0  0.1328
  C  C218  1  0.444000  0.928400  0.145800  1.0  -0.1213
  C  C219  1  0.713100  0.261300  0.781600  1.0  0.126
  C  C220  1  0.782600  0.298200  0.854200  1.0  -0.1221
  C  C221  1  0.931500  0.713100  0.451800  1.0  0.1352
  C  C222  1  0.928400  0.782600  0.484400  1.0  -0.1193
  C  C223  1  0.261300  0.479700  0.548200  1.0  0.1285
  C  C224  1  0.298200  0.444000  0.515600  1.0  -0.1291
  C  C225  1  0.738700  0.286900  0.218400  1.0  0.1247
  C  C226  1  0.701800  0.217400  0.145800  1.0  -0.1192
  C  C227  1  0.068500  0.520300  0.781600  1.0  0.1345
  C  C228  1  0.071600  0.556000  0.854200  1.0  -0.1208
  C  C229  1  0.536200  0.681000  0.536200  1.0  -0.1359
  C  C230  1  0.565100  0.633000  0.565100  1.0  0.3844
  C  C231  1  0.144800  0.000000  0.463800  1.0  -0.1337
  C  C232  1  0.067900  0.000000  0.434900  1.0  0.375
  C  C233  1  0.463800  0.000000  0.144800  1.0  -0.1306
  C  C234  1  0.434900  0.000000  0.067900  1.0  0.374
  C  C235  1  0.855200  0.319000  0.855200  1.0  -0.1295
  C  C236  1  0.932100  0.367000  0.932100  1.0  0.3877
  C  C237  1  0.475300  0.101500  0.626200  1.0  0.0558
  C  C238  1  0.150900  0.524700  0.626200  1.0  0.0627
  C  C239  1  0.451800  0.520300  0.738700  1.0  0.1284
  C  C240  1  0.484400  0.556000  0.701800  1.0  -0.1253
  C  C241  1  0.548200  0.286900  0.068500  1.0  0.1336
  C  C242  1  0.515600  0.217400  0.071600  1.0  -0.1172
  C  C243  1  0.218400  0.479700  0.931500  1.0  0.1351
  C  C244  1  0.145800  0.444000  0.928400  1.0  -0.1234
  C  C245  1  0.781600  0.713100  0.261300  1.0  0.1279
  C  C246  1  0.854200  0.782600  0.298200  1.0  -0.1214
  C  C247  1  0.451800  0.931500  0.713100  1.0  0.1352
  C  C248  1  0.484400  0.928400  0.782600  1.0  -0.1211
  C  C249  1  0.548200  0.261300  0.479700  1.0  0.1271
  C  C250  1  0.515600  0.298200  0.444000  1.0  -0.1215
  C  C251  1  0.218400  0.738700  0.286900  1.0  0.126
  C  C252  1  0.145800  0.701800  0.217400  1.0  -0.1239
  C  C253  1  0.781600  0.068500  0.520300  1.0  0.1332
  C  C254  1  0.854200  0.071600  0.556000  1.0  -0.1228
  C  C255  1  0.536200  0.536200  0.681000  1.0  -0.1349
  C  C256  1  0.565100  0.565100  0.633000  1.0  0.3815
  C  C257  1  0.463800  0.144800  0.000000  1.0  -0.1314
  C  C258  1  0.434900  0.067900  0.000000  1.0  0.3702
  C  C259  1  0.144800  0.463800  0.000000  1.0  -0.1342
  C  C260  1  0.067900  0.434900  0.000000  1.0  0.3708
  C  C261  1  0.855200  0.855200  0.319000  1.0  -0.1292
  C  C262  1  0.932100  0.932100  0.367000  1.0  0.3846
  C  C263  1  0.626200  0.475300  0.101500  1.0  0.0562
  C  C264  1  0.626200  0.150900  0.524700  1.0  0.0638
  N  N265  1  0.244800  0.532300  0.532300  1.0  -0.3266
  N  N266  1  0.000000  0.467700  0.712500  1.0  -0.345
  N  N267  1  0.000000  0.712500  0.467700  1.0  -0.3406
  N  N268  1  0.755200  0.287500  0.287500  1.0  -0.3336
  N  N269  1  0.150900  0.626200  0.524700  1.0  -0.4517
  N  N270  1  0.475300  0.626200  0.101500  1.0  -0.4524
  N  N271  1  0.388700  0.388700  0.459600  1.0  -0.537
  N  N272  1  0.070900  0.611300  0.000000  1.0  -0.5325
  N  N273  1  0.929100  0.929100  0.540400  1.0  -0.5295
  N  N274  1  0.611300  0.070900  0.000000  1.0  -0.5312
  N  N275  1  0.532300  0.244800  0.532300  1.0  -0.3289
  N  N276  1  0.712500  0.000000  0.467700  1.0  -0.3413
  N  N277  1  0.467700  0.000000  0.712500  1.0  -0.3413
  N  N278  1  0.287500  0.755200  0.287500  1.0  -0.3341
  N  N279  1  0.524700  0.150900  0.626200  1.0  -0.451
  N  N280  1  0.101500  0.475300  0.626200  1.0  -0.4532
  N  N281  1  0.459600  0.388700  0.388700  1.0  -0.5302
  N  N282  1  0.000000  0.070900  0.611300  1.0  -0.5295
  N  N283  1  0.540400  0.929100  0.929100  1.0  -0.5294
  N  N284  1  0.000000  0.611300  0.070900  1.0  -0.5343
  N  N285  1  0.532300  0.532300  0.244800  1.0  -0.3277
  N  N286  1  0.467700  0.712500  0.000000  1.0  -0.3418
  N  N287  1  0.712500  0.467700  0.000000  1.0  -0.3415
  N  N288  1  0.287500  0.287500  0.755200  1.0  -0.3304
  N  N289  1  0.626200  0.524700  0.150900  1.0  -0.4514
  N  N290  1  0.626200  0.101500  0.475300  1.0  -0.4534
  N  N291  1  0.388700  0.459600  0.388700  1.0  -0.5337
  N  N292  1  0.611300  0.000000  0.070900  1.0  -0.5325
  N  N293  1  0.929100  0.540400  0.929100  1.0  -0.5341
  N  N294  1  0.070900  0.000000  0.611300  1.0  -0.5294
  N  N295  1  0.755200  0.467700  0.467700  1.0  -0.329
  N  N296  1  0.000000  0.532300  0.287500  1.0  -0.3426
  N  N297  1  0.000000  0.287500  0.532300  1.0  -0.3435
  N  N298  1  0.244800  0.712500  0.712500  1.0  -0.3333
  N  N299  1  0.849100  0.373800  0.475300  1.0  -0.4505
  N  N300  1  0.524700  0.373800  0.898500  1.0  -0.4534
  N  N301  1  0.611300  0.611300  0.540400  1.0  -0.5369
  N  N302  1  0.929100  0.388700  0.000000  1.0  -0.5329
  N  N303  1  0.070900  0.070900  0.459600  1.0  -0.5261
  N  N304  1  0.388700  0.929100  0.000000  1.0  -0.5345
  N  N305  1  0.467700  0.755200  0.467700  1.0  -0.3302
  N  N306  1  0.287500  0.000000  0.532300  1.0  -0.3425
  N  N307  1  0.532300  0.000000  0.287500  1.0  -0.3411
  N  N308  1  0.712500  0.244800  0.712500  1.0  -0.3354
  N  N309  1  0.475300  0.849100  0.373800  1.0  -0.4517
  N  N310  1  0.898500  0.524700  0.373800  1.0  -0.4541
  N  N311  1  0.540400  0.611300  0.611300  1.0  -0.5325
  N  N312  1  0.000000  0.929100  0.388700  1.0  -0.5291
  N  N313  1  0.459600  0.070900  0.070900  1.0  -0.5323
  N  N314  1  0.000000  0.388700  0.929100  1.0  -0.5341
  N  N315  1  0.467700  0.467700  0.755200  1.0  -0.3294
  N  N316  1  0.532300  0.287500  0.000000  1.0  -0.3448
  N  N317  1  0.287500  0.532300  0.000000  1.0  -0.3432
  N  N318  1  0.712500  0.712500  0.244800  1.0  -0.3329
  N  N319  1  0.373800  0.475300  0.849100  1.0  -0.4522
  N  N320  1  0.373800  0.898500  0.524700  1.0  -0.4536
  N  N321  1  0.611300  0.540400  0.611300  1.0  -0.5353
  N  N322  1  0.388700  0.000000  0.929100  1.0  -0.533
  N  N323  1  0.070900  0.459600  0.070900  1.0  -0.5345
  N  N324  1  0.929100  0.000000  0.388700  1.0  -0.527
