# generated using pymatgen
data_Ga2H22(C3N2)7
_symmetry_space_group_name_H-M   'P 1'
_cell_length_a   12.19450000
_cell_length_b   12.19450000
_cell_length_c   12.16900000
_cell_angle_alpha   119.48200000
_cell_angle_beta   119.48200000
_cell_angle_gamma   52.67820000
_symmetry_Int_Tables_number   1
_chemical_formula_structural   Ga2H22(C3N2)7
_chemical_formula_sum   'Ga4 H44 C42 N28'
_cell_volume   1202.65578346
_cell_formula_units_Z   2
loop_
 _symmetry_equiv_pos_site_id
 _symmetry_equiv_pos_as_xyz
  1  'x, y, z'
loop_
 _atom_site_type_symbol
 _atom_site_label
 _atom_site_symmetry_multiplicity
 _atom_site_fract_x
 _atom_site_fract_y
 _atom_site_fract_z
 _atom_site_occupancy
 _atom_site_charge
  Ga  Ga1  1  0.500000  0.000000  0.000000  1.0  1.0523
  Ga  Ga2  1  0.000000  0.500000  0.500000  1.0  1.0523
  Ga  Ga3  1  0.500000  0.500000  0.000000  1.0  1.0534
  Ga  Ga4  1  0.500000  0.500000  0.500000  1.0  1.0544
  H  H5  1  0.496000  0.286000  0.081000  1.0  0.0368
  H  H6  1  0.525000  0.013000  0.750000  1.0  0.1283
  H  H7  1  0.553000  0.191000  0.760000  1.0  0.0934
  H  H8  1  0.604000  0.728000  0.756000  1.0  0.0585
  H  H9  1  0.209000  0.997000  0.772000  1.0  0.087
  H  H10  1  0.205000  0.791000  0.567000  1.0  0.092
  H  H11  1  0.248000  0.306000  0.946000  1.0  0.0827
  H  H12  1  0.221000  0.075000  0.051000  1.0  0.0884
  H  H13  1  0.986000  0.306000  0.039000  1.0  0.1013
  H  H14  1  0.235000  0.749000  0.136000  1.0  0.0906
  H  H15  1  0.464720  0.006990  0.469030  1.0  0.282
  H  H16  1  0.714000  0.504000  0.419000  1.0  0.0366
  H  H17  1  0.987000  0.475000  0.750000  1.0  0.1348
  H  H18  1  0.809000  0.447000  0.740000  1.0  0.0929
  H  H19  1  0.272000  0.396000  0.744000  1.0  0.0597
  H  H20  1  0.003000  0.791000  0.728000  1.0  0.0907
  H  H21  1  0.209000  0.795000  0.933000  1.0  0.0931
  H  H22  1  0.694000  0.752000  0.554000  1.0  0.0834
  H  H23  1  0.925000  0.779000  0.449000  1.0  0.0862
  H  H24  1  0.694000  0.014000  0.461000  1.0  0.1023
  H  H25  1  0.251000  0.765000  0.364000  1.0  0.0913
  H  H26  1  0.993010  0.535280  0.030970  1.0  0.2832
  H  H27  1  0.504000  0.714000  0.919000  1.0  0.0366
  H  H28  1  0.475000  0.987000  0.250000  1.0  0.1677
  H  H29  1  0.447000  0.809000  0.240000  1.0  0.1225
  H  H30  1  0.396000  0.272000  0.244000  1.0  0.059
  H  H31  1  0.791000  0.003000  0.228000  1.0  0.0874
  H  H32  1  0.795000  0.209000  0.433000  1.0  0.0919
  H  H33  1  0.752000  0.694000  0.054000  1.0  0.083
  H  H34  1  0.779000  0.925000  0.949000  1.0  0.0881
  H  H35  1  0.014000  0.694000  0.961000  1.0  0.1
  H  H36  1  0.765000  0.251000  0.864000  1.0  0.0893
  H  H37  1  0.286000  0.496000  0.581000  1.0  0.0373
  H  H38  1  0.013000  0.525000  0.250000  1.0  0.1698
  H  H39  1  0.191000  0.553000  0.260000  1.0  0.1229
  H  H40  1  0.728000  0.604000  0.256000  1.0  0.0598
  H  H41  1  0.997000  0.209000  0.272000  1.0  0.0912
  H  H42  1  0.791000  0.205000  0.067000  1.0  0.0917
  H  H43  1  0.306000  0.248000  0.446000  1.0  0.0826
  H  H44  1  0.075000  0.221000  0.551000  1.0  0.0874
  H  H45  1  0.306000  0.986000  0.539000  1.0  0.1035
  H  H46  1  0.749000  0.235000  0.636000  1.0  0.0893
  H  H47  1  0.581000  0.419000  0.250000  1.0  0.0563
  H  H48  1  0.419000  0.581000  0.750000  1.0  0.0565
  C  C49  1  0.504660  0.245260  0.999800  1.0  0.2275
  C  C50  1  0.528580  0.195380  0.815000  1.0  0.0144
  C  C51  1  0.524410  0.085610  0.814600  1.0  0.0069
  C  C52  1  0.501150  0.768750  0.729500  1.0  0.2073
  C  C53  1  0.283510  0.805910  0.631600  1.0  -0.0617
  C  C54  1  0.284100  0.917100  0.742600  1.0  -0.0153
  C  C55  1  0.213120  0.281120  0.976400  1.0  0.2105
  C  C56  1  0.068180  0.276780  0.024400  1.0  -0.0704
  C  C57  1  0.195040  0.153040  0.033100  1.0  -0.0436
  C  C58  1  0.306210  0.686210  0.190800  1.0  -0.0229
  C  C59  1  0.754740  0.495340  0.500200  1.0  0.2274
  C  C60  1  0.804620  0.471420  0.685000  1.0  0.0139
  C  C61  1  0.914390  0.475590  0.685400  1.0  0.0072
  C  C62  1  0.231250  0.498850  0.770500  1.0  0.2052
  C  C63  1  0.194090  0.716490  0.868400  1.0  -0.0592
  C  C64  1  0.082900  0.715900  0.757400  1.0  -0.0137
  C  C65  1  0.718880  0.786880  0.523600  1.0  0.2103
  C  C66  1  0.723220  0.931820  0.475600  1.0  -0.0703
  C  C67  1  0.846960  0.804960  0.466900  1.0  -0.0422
  C  C68  1  0.313790  0.693790  0.309200  1.0  -0.0213
  C  C69  1  0.495340  0.754740  0.000200  1.0  0.2249
  C  C70  1  0.471420  0.804620  0.185000  1.0  0.0154
  C  C71  1  0.475590  0.914390  0.185400  1.0  0.0034
  C  C72  1  0.498850  0.231250  0.270500  1.0  0.2067
  C  C73  1  0.716490  0.194090  0.368400  1.0  -0.0618
  C  C74  1  0.715900  0.082900  0.257400  1.0  -0.0145
  C  C75  1  0.786880  0.718880  0.023600  1.0  0.18
  C  C76  1  0.931820  0.723220  0.975600  1.0  -0.0988
  C  C77  1  0.804960  0.846960  0.966900  1.0  -0.0457
  C  C78  1  0.693790  0.313790  0.809200  1.0  -0.0214
  C  C79  1  0.245260  0.504660  0.499800  1.0  0.2264
  C  C80  1  0.195380  0.528580  0.315000  1.0  0.0159
  C  C81  1  0.085610  0.524410  0.314600  1.0  0.0027
  C  C82  1  0.768750  0.501150  0.229500  1.0  0.2065
  C  C83  1  0.805910  0.283510  0.131600  1.0  -0.0602
  C  C84  1  0.917100  0.284100  0.242600  1.0  -0.0109
  C  C85  1  0.281120  0.213120  0.476400  1.0  0.1773
  C  C86  1  0.276780  0.068180  0.524400  1.0  -0.0976
  C  C87  1  0.153040  0.195040  0.533100  1.0  -0.0462
  C  C88  1  0.686210  0.306210  0.690800  1.0  -0.0207
  C  C89  1  0.497700  0.502300  0.250000  1.0  0.2179
  C  C90  1  0.502300  0.497700  0.750000  1.0  0.2185
  N  N91  1  0.509980  0.116780  0.932200  1.0  -0.3938
  N  N92  1  0.514270  0.299270  0.934300  1.0  -0.4067
  N  N93  1  0.423960  0.892760  0.806600  1.0  -0.396
  N  N94  1  0.422650  0.709650  0.622900  1.0  -0.4055
  N  N95  1  0.288520  0.155320  0.002900  1.0  -0.3953
  N  N96  1  0.080300  0.357900  0.988200  1.0  -0.2675
  N  N97  1  0.425290  0.564290  0.152800  1.0  -0.4037
  N  N98  1  0.883220  0.490020  0.567800  1.0  -0.3978
  N  N99  1  0.700730  0.485730  0.565700  1.0  -0.4086
  N  N100  1  0.107240  0.576040  0.693400  1.0  -0.3994
  N  N101  1  0.290350  0.577350  0.877100  1.0  -0.4058
  N  N102  1  0.844680  0.711480  0.497100  1.0  -0.3947
  N  N103  1  0.642100  0.919700  0.511800  1.0  -0.2663
  N  N104  1  0.435710  0.574710  0.347200  1.0  -0.4043
  N  N105  1  0.490020  0.883220  0.067800  1.0  -0.4057
  N  N106  1  0.485730  0.700730  0.065700  1.0  -0.4079
  N  N107  1  0.576040  0.107240  0.193400  1.0  -0.3978
  N  N108  1  0.577350  0.290350  0.377100  1.0  -0.4061
  N  N109  1  0.711480  0.844680  0.997100  1.0  -0.3954
  N  N110  1  0.919700  0.642100  0.011800  1.0  -0.2161
  N  N111  1  0.574710  0.435710  0.847200  1.0  -0.4022
  N  N112  1  0.116780  0.509980  0.432200  1.0  -0.4069
  N  N113  1  0.299270  0.514270  0.434300  1.0  -0.4066
  N  N114  1  0.892760  0.423960  0.306600  1.0  -0.3977
  N  N115  1  0.709650  0.422650  0.122900  1.0  -0.4058
  N  N116  1  0.155320  0.288520  0.502900  1.0  -0.3958
  N  N117  1  0.357900  0.080300  0.488200  1.0  -0.2171
  N  N118  1  0.564290  0.425290  0.652800  1.0  -0.4025
