# generated using pymatgen
data_SmH12(C5O2)3
_symmetry_space_group_name_H-M   'P 1'
_cell_length_a   10.05800000
_cell_length_b   21.86000000
_cell_length_c   13.98900000
_cell_angle_alpha   91.48100000
_cell_angle_beta   90.00000000
_cell_angle_gamma   90.00000000
_symmetry_Int_Tables_number   1
_chemical_formula_structural   SmH12(C5O2)3
_chemical_formula_sum   'Sm8 H96 C120 O48'
_cell_volume   3074.70432701
_cell_formula_units_Z   8
loop_
 _symmetry_equiv_pos_site_id
 _symmetry_equiv_pos_as_xyz
  1  'x, y, z'
loop_
 _atom_site_type_symbol
 _atom_site_label
 _atom_site_symmetry_multiplicity
 _atom_site_fract_x
 _atom_site_fract_y
 _atom_site_fract_z
 _atom_site_occupancy
 _atom_site_charge
  Sm  Sm1  1  0.438400  0.759710  0.768240  1.0  2.3289
  Sm  Sm2  1  0.750390  0.251030  0.473480  1.0  2.3243
  Sm  Sm3  1  0.938400  0.240290  0.731760  1.0  2.3289
  Sm  Sm4  1  0.250390  0.748970  0.026520  1.0  2.3248
  Sm  Sm5  1  0.561600  0.240290  0.231760  1.0  2.3282
  Sm  Sm6  1  0.249610  0.748970  0.526520  1.0  2.3247
  Sm  Sm7  1  0.061600  0.759710  0.268240  1.0  2.3307
  Sm  Sm8  1  0.749610  0.251030  0.973480  1.0  2.3243
  H  H9  1  0.316600  0.921900  0.560000  1.0  0.1503
  H  H10  1  0.463800  0.909500  0.529500  1.0  0.1491
  H  H11  1  0.644100  0.966800  0.635500  1.0  0.1023
  H  H12  1  0.704700  0.062100  0.685200  1.0  0.114
  H  H13  1  0.324600  0.114500  0.682800  1.0  0.1169
  H  H14  1  0.267200  0.017100  0.625900  1.0  0.0834
  H  H15  1  0.483800  0.185100  0.737100  1.0  0.1418
  H  H16  1  0.618800  0.159800  0.776000  1.0  0.1385
  H  H17  1  0.002600  0.658300  0.787300  1.0  0.143
  H  H18  1  0.143500  0.629900  0.804900  1.0  0.1333
  H  H19  1  0.837700  0.595900  0.708500  1.0  0.105
  H  H20  1  0.772300  0.505800  0.634200  1.0  0.0925
  H  H21  1  0.146900  0.454300  0.617100  1.0  0.0958
  H  H22  1  0.212900  0.544000  0.688200  1.0  0.0994
  H  H23  1  0.813100  0.414500  0.554100  1.0  0.1516
  H  H24  1  0.955700  0.404700  0.512300  1.0  0.1538
  H  H25  1  0.586400  0.616600  0.648900  1.0  0.1294
  H  H26  1  0.651600  0.634300  0.551500  1.0  0.1429
  H  H27  1  0.463200  0.524000  0.660100  1.0  0.1003
  H  H28  1  0.594800  0.572500  0.405600  1.0  0.1018
  H  H29  1  0.700200  0.877500  0.988500  1.0  0.1313
  H  H30  1  0.633700  0.872400  0.089500  1.0  0.1282
  H  H31  1  0.503600  0.931600  0.872200  1.0  0.1122
  H  H32  1  0.582300  0.972200  0.145800  1.0  0.0885
  H  H33  1  0.816600  0.078100  0.940000  1.0  0.1505
  H  H34  1  0.963800  0.090500  0.970500  1.0  0.15
  H  H35  1  0.144100  0.033200  0.864500  1.0  0.1023
  H  H36  1  0.204700  0.937900  0.814800  1.0  0.114
  H  H37  1  0.824600  0.885500  0.817200  1.0  0.1158
  H  H38  1  0.767200  0.982900  0.874100  1.0  0.0837
  H  H39  1  0.983800  0.814900  0.762900  1.0  0.1414
  H  H40  1  0.118800  0.840200  0.724000  1.0  0.1379
  H  H41  1  0.502600  0.341700  0.712700  1.0  0.1423
  H  H42  1  0.643500  0.370100  0.695100  1.0  0.134
  H  H43  1  0.337700  0.404100  0.791500  1.0  0.1041
  H  H44  1  0.272300  0.494200  0.865800  1.0  0.0929
  H  H45  1  0.646900  0.545700  0.882900  1.0  0.0953
  H  H46  1  0.712900  0.456000  0.811800  1.0  0.0996
  H  H47  1  0.313100  0.585500  0.945900  1.0  0.1518
  H  H48  1  0.455700  0.595300  0.987700  1.0  0.1544
  H  H49  1  0.086400  0.383400  0.851100  1.0  0.1284
  H  H50  1  0.151600  0.365700  0.948500  1.0  0.1426
  H  H51  1  0.963200  0.476000  0.839900  1.0  0.1012
  H  H52  1  0.094800  0.427500  0.094400  1.0  0.1028
  H  H53  1  0.200200  0.122500  0.511500  1.0  0.1313
  H  H54  1  0.133700  0.127600  0.410500  1.0  0.1284
  H  H55  1  0.003600  0.068400  0.627800  1.0  0.1129
  H  H56  1  0.082300  0.027800  0.354200  1.0  0.0894
  H  H57  1  0.683400  0.078100  0.440000  1.0  0.151
  H  H58  1  0.536200  0.090500  0.470500  1.0  0.151
  H  H59  1  0.355900  0.033200  0.364500  1.0  0.1027
  H  H60  1  0.295300  0.937900  0.314800  1.0  0.1139
  H  H61  1  0.675400  0.885500  0.317200  1.0  0.1169
  H  H62  1  0.732800  0.982900  0.374100  1.0  0.0833
  H  H63  1  0.516200  0.814900  0.262900  1.0  0.1402
  H  H64  1  0.381200  0.840200  0.224000  1.0  0.1395
  H  H65  1  0.997400  0.341700  0.212700  1.0  0.1412
  H  H66  1  0.856500  0.370100  0.195100  1.0  0.1338
  H  H67  1  0.162300  0.404100  0.291500  1.0  0.1047
  H  H68  1  0.227700  0.494200  0.365800  1.0  0.0932
  H  H69  1  0.853100  0.545700  0.382900  1.0  0.0953
  H  H70  1  0.787100  0.456000  0.311800  1.0  0.0997
  H  H71  1  0.186900  0.585500  0.445900  1.0  0.1529
  H  H72  1  0.044300  0.595300  0.487700  1.0  0.1543
  H  H73  1  0.413600  0.383400  0.351100  1.0  0.1275
  H  H74  1  0.348400  0.365700  0.448500  1.0  0.1429
  H  H75  1  0.536800  0.476000  0.339900  1.0  0.1009
  H  H76  1  0.405200  0.427500  0.594400  1.0  0.1025
  H  H77  1  0.299800  0.122500  0.011500  1.0  0.1309
  H  H78  1  0.366300  0.127600  0.910500  1.0  0.1277
  H  H79  1  0.496400  0.068400  0.127800  1.0  0.1129
  H  H80  1  0.417700  0.027800  0.854200  1.0  0.0893
  H  H81  1  0.183400  0.921900  0.060000  1.0  0.1504
  H  H82  1  0.036200  0.909500  0.029500  1.0  0.1502
  H  H83  1  0.855900  0.966800  0.135500  1.0  0.1024
  H  H84  1  0.795300  0.062100  0.185200  1.0  0.1142
  H  H85  1  0.175400  0.114500  0.182800  1.0  0.1172
  H  H86  1  0.232800  0.017100  0.125900  1.0  0.0833
  H  H87  1  0.016200  0.185100  0.237100  1.0  0.1408
  H  H88  1  0.881200  0.159800  0.276000  1.0  0.1405
  H  H89  1  0.497400  0.658300  0.287300  1.0  0.1416
  H  H90  1  0.356500  0.629900  0.304900  1.0  0.134
  H  H91  1  0.662300  0.595900  0.208500  1.0  0.1049
  H  H92  1  0.727700  0.505800  0.134200  1.0  0.0928
  H  H93  1  0.353100  0.454300  0.117100  1.0  0.0958
  H  H94  1  0.287100  0.544000  0.188200  1.0  0.0996
  H  H95  1  0.686900  0.414500  0.054100  1.0  0.1524
  H  H96  1  0.544300  0.404700  0.012300  1.0  0.1537
  H  H97  1  0.913600  0.616600  0.148900  1.0  0.1289
  H  H98  1  0.848400  0.634300  0.051500  1.0  0.1422
  H  H99  1  0.036800  0.524000  0.160100  1.0  0.1003
  H  H100  1  0.905200  0.572500  0.905600  1.0  0.1018
  H  H101  1  0.799800  0.877500  0.488500  1.0  0.1308
  H  H102  1  0.866300  0.872400  0.589500  1.0  0.128
  H  H103  1  0.996400  0.931600  0.372200  1.0  0.1124
  H  H104  1  0.917700  0.972200  0.645800  1.0  0.088
  C  C105  1  0.413600  0.868600  0.649700  1.0  0.8343
  C  C106  1  0.407000  0.919300  0.583800  1.0  -0.4037
  C  C107  1  0.446100  0.981100  0.623300  1.0  0.1173
  C  C108  1  0.578800  0.996600  0.643600  1.0  -0.1091
  C  C109  1  0.615400  0.053500  0.674500  1.0  -0.1491
  C  C110  1  0.522100  0.098500  0.690100  1.0  0.1146
  C  C111  1  0.390000  0.085000  0.672500  1.0  -0.1743
  C  C112  1  0.356100  0.025700  0.638500  1.0  -0.1229
  C  C113  1  0.562300  0.161500  0.720000  1.0  -0.3809
  C  C114  1  0.634300  0.192300  0.642600  1.0  0.8026
  C  C115  1  0.138000  0.681900  0.685200  1.0  0.7956
  C  C116  1  0.078100  0.638700  0.756200  1.0  -0.3879
  C  C117  1  0.033000  0.578900  0.707900  1.0  0.1086
  C  C118  1  0.901400  0.567100  0.690400  1.0  -0.139
  C  C119  1  0.862100  0.512700  0.646100  1.0  -0.1288
  C  C120  1  0.951200  0.469700  0.619800  1.0  0.1163
  C  C121  1  0.083000  0.482900  0.636000  1.0  -0.1077
  C  C122  1  0.122800  0.536500  0.678900  1.0  -0.1333
  C  C123  1  0.905900  0.410100  0.571300  1.0  -0.4047
  C  C124  1  0.919700  0.353100  0.626700  1.0  0.811
  C  C125  1  0.462400  0.663900  0.564900  1.0  0.8183
  C  C126  1  0.570600  0.619700  0.580800  1.0  -0.3901
  C  C127  1  0.536300  0.555900  0.538200  1.0  0.1028
  C  C128  1  0.478800  0.514600  0.595900  1.0  -0.1199
  C  C129  1  0.557000  0.543200  0.444100  1.0  -0.1251
  C  C130  1  0.526300  0.830600  0.984000  1.0  0.8524
  C  C131  1  0.616200  0.879200  0.022500  1.0  -0.3803
  C  C132  1  0.554100  0.942200  0.011700  1.0  0.0963
  C  C133  1  0.502600  0.959300  0.923900  1.0  -0.1216
  C  C134  1  0.549500  0.983300  0.086600  1.0  -0.1298
  C  C135  1  0.913600  0.131400  0.850300  1.0  0.8376
  C  C136  1  0.907000  0.080700  0.916200  1.0  -0.4053
  C  C137  1  0.946100  0.018900  0.876700  1.0  0.117
  C  C138  1  0.078800  0.003400  0.856400  1.0  -0.1096
  C  C139  1  0.115400  0.946500  0.825500  1.0  -0.1489
  C  C140  1  0.022100  0.901500  0.809900  1.0  0.115
  C  C141  1  0.890000  0.915000  0.827500  1.0  -0.1732
  C  C142  1  0.856100  0.974300  0.861500  1.0  -0.1227
  C  C143  1  0.062300  0.838500  0.780000  1.0  -0.3784
  C  C144  1  0.134300  0.807700  0.857400  1.0  0.7997
  C  C145  1  0.638000  0.318100  0.814800  1.0  0.7952
  C  C146  1  0.578100  0.361300  0.743800  1.0  -0.3857
  C  C147  1  0.533000  0.421100  0.792100  1.0  0.1078
  C  C148  1  0.401400  0.432900  0.809600  1.0  -0.1384
  C  C149  1  0.362100  0.487300  0.853900  1.0  -0.1292
  C  C150  1  0.451200  0.530300  0.880200  1.0  0.1155
  C  C151  1  0.583000  0.517100  0.864000  1.0  -0.1071
  C  C152  1  0.622800  0.463500  0.821100  1.0  -0.1337
  C  C153  1  0.405900  0.589900  0.928700  1.0  -0.4064
  C  C154  1  0.419700  0.646900  0.873300  1.0  0.8113
  C  C155  1  0.962400  0.336100  0.935100  1.0  0.8205
  C  C156  1  0.070600  0.380300  0.919200  1.0  -0.3913
  C  C157  1  0.036300  0.444100  0.961800  1.0  0.1022
  C  C158  1  0.978800  0.485400  0.904100  1.0  -0.1194
  C  C159  1  0.057000  0.456800  0.055900  1.0  -0.1252
  C  C160  1  0.026300  0.169400  0.516000  1.0  0.8532
  C  C161  1  0.116200  0.120800  0.477500  1.0  -0.3807
  C  C162  1  0.054100  0.057800  0.488300  1.0  0.0965
  C  C163  1  0.002600  0.040700  0.576100  1.0  -0.1228
  C  C164  1  0.049500  0.016700  0.413400  1.0  -0.1305
  C  C165  1  0.586400  0.131400  0.350300  1.0  0.8378
  C  C166  1  0.593000  0.080700  0.416200  1.0  -0.405
  C  C167  1  0.553900  0.018900  0.376700  1.0  0.1166
  C  C168  1  0.421200  0.003400  0.356400  1.0  -0.1091
  C  C169  1  0.384600  0.946500  0.325500  1.0  -0.1484
  C  C170  1  0.477900  0.901500  0.309900  1.0  0.1153
  C  C171  1  0.610000  0.915000  0.327500  1.0  -0.1743
  C  C172  1  0.643900  0.974300  0.361500  1.0  -0.1229
  C  C173  1  0.437700  0.838500  0.280000  1.0  -0.3772
  C  C174  1  0.365700  0.807700  0.357400  1.0  0.7989
  C  C175  1  0.862000  0.318100  0.314800  1.0  0.7951
  C  C176  1  0.921900  0.361300  0.243800  1.0  -0.3858
  C  C177  1  0.967000  0.421100  0.292100  1.0  0.1079
  C  C178  1  0.098600  0.432900  0.309600  1.0  -0.1382
  C  C179  1  0.137900  0.487300  0.353900  1.0  -0.1289
  C  C180  1  0.048800  0.530300  0.380200  1.0  0.1148
  C  C181  1  0.917000  0.517100  0.364000  1.0  -0.1073
  C  C182  1  0.877200  0.463500  0.321100  1.0  -0.1335
  C  C183  1  0.094100  0.589900  0.428700  1.0  -0.4056
  C  C184  1  0.080300  0.646900  0.373300  1.0  0.8144
  C  C185  1  0.537600  0.336100  0.435100  1.0  0.8179
  C  C186  1  0.429400  0.380300  0.419200  1.0  -0.3916
  C  C187  1  0.463700  0.444100  0.461800  1.0  0.1026
  C  C188  1  0.521200  0.485400  0.404100  1.0  -0.1192
  C  C189  1  0.443000  0.456800  0.555900  1.0  -0.1123
  C  C190  1  0.473700  0.169400  0.016000  1.0  0.8528
  C  C191  1  0.383800  0.120800  0.977500  1.0  -0.38
  C  C192  1  0.445900  0.057800  0.988300  1.0  0.0965
  C  C193  1  0.497400  0.040700  0.076100  1.0  -0.1228
  C  C194  1  0.450500  0.016700  0.913400  1.0  -0.123
  C  C195  1  0.086400  0.868600  0.149700  1.0  0.834
  C  C196  1  0.093000  0.919300  0.083800  1.0  -0.4033
  C  C197  1  0.053900  0.981100  0.123300  1.0  0.1169
  C  C198  1  0.921200  0.996600  0.143600  1.0  -0.1084
  C  C199  1  0.884600  0.053500  0.174500  1.0  -0.1485
  C  C200  1  0.977900  0.098500  0.190100  1.0  0.1151
  C  C201  1  0.110000  0.085000  0.172500  1.0  -0.175
  C  C202  1  0.143900  0.025700  0.138500  1.0  -0.1233
  C  C203  1  0.937700  0.161500  0.220000  1.0  -0.3793
  C  C204  1  0.865700  0.192300  0.142600  1.0  0.8027
  C  C205  1  0.362000  0.681900  0.185200  1.0  0.796
  C  C206  1  0.421900  0.638700  0.256200  1.0  -0.3872
  C  C207  1  0.467000  0.578900  0.207900  1.0  0.109
  C  C208  1  0.598600  0.567100  0.190400  1.0  -0.1391
  C  C209  1  0.637900  0.512700  0.146100  1.0  -0.1287
  C  C210  1  0.548800  0.469700  0.119800  1.0  0.1158
  C  C211  1  0.417000  0.482900  0.136000  1.0  -0.1072
  C  C212  1  0.377200  0.536500  0.178900  1.0  -0.1333
  C  C213  1  0.594100  0.410100  0.071300  1.0  -0.4044
  C  C214  1  0.580300  0.353100  0.126700  1.0  0.8084
  C  C215  1  0.037600  0.663900  0.064900  1.0  0.8155
  C  C216  1  0.929400  0.619700  0.080800  1.0  -0.3905
  C  C217  1  0.963700  0.555900  0.038200  1.0  0.103
  C  C218  1  0.021200  0.514600  0.095900  1.0  -0.1202
  C  C219  1  0.943000  0.543200  0.944100  1.0  -0.1118
  C  C220  1  0.973700  0.830600  0.484000  1.0  0.8519
  C  C221  1  0.883800  0.879200  0.522500  1.0  -0.3794
  C  C222  1  0.945900  0.942200  0.511700  1.0  0.0966
  C  C223  1  0.997400  0.959300  0.423900  1.0  -0.1217
  C  C224  1  0.950500  0.983300  0.586600  1.0  -0.1226
  O  O225  1  0.333400  0.825100  0.635700  1.0  -0.8279
  O  O226  1  0.493100  0.864900  0.717100  1.0  -0.6943
  O  O227  1  0.572000  0.217100  0.576600  1.0  -0.7045
  O  O228  1  0.759700  0.191600  0.638200  1.0  -0.8277
  O  O229  1  0.234600  0.714900  0.706800  1.0  -0.801
  O  O230  1  0.082100  0.687700  0.604500  1.0  -0.678
  O  O231  1  0.866900  0.304000  0.597100  1.0  -0.8631
  O  O232  1  0.981500  0.350600  0.704600  1.0  -0.7259
  O  O233  1  0.472900  0.717700  0.607900  1.0  -0.8974
  O  O234  1  0.368400  0.654100  0.513300  1.0  -0.6567
  O  O235  1  0.546900  0.807100  0.903500  1.0  -0.7948
  O  O236  1  0.431800  0.814500  0.036400  1.0  -0.7616
  O  O237  1  0.833400  0.174900  0.864300  1.0  -0.8281
  O  O238  1  0.993100  0.135100  0.782900  1.0  -0.6925
  O  O239  1  0.072000  0.782900  0.923400  1.0  -0.7062
  O  O240  1  0.259700  0.808400  0.861800  1.0  -0.8277
  O  O241  1  0.734600  0.285100  0.793200  1.0  -0.8002
  O  O242  1  0.582100  0.312300  0.895500  1.0  -0.6784
  O  O243  1  0.366900  0.696000  0.902900  1.0  -0.8664
  O  O244  1  0.481500  0.649400  0.795400  1.0  -0.7234
  O  O245  1  0.972900  0.282300  0.892100  1.0  -0.8978
  O  O246  1  0.868400  0.345900  0.986700  1.0  -0.6554
  O  O247  1  0.046900  0.192900  0.596500  1.0  -0.7989
  O  O248  1  0.931800  0.185500  0.463600  1.0  -0.7614
  O  O249  1  0.666667  0.174900  0.364300  1.0  -0.8134
  O  O250  1  0.506900  0.135100  0.282900  1.0  -0.693
  O  O251  1  0.428000  0.782900  0.423400  1.0  -0.7084
  O  O252  1  0.240300  0.808400  0.361800  1.0  -0.8285
  O  O253  1  0.765400  0.285100  0.293200  1.0  -0.8011
  O  O254  1  0.917900  0.312300  0.395500  1.0  -0.6797
  O  O255  1  0.133100  0.696000  0.402900  1.0  -0.866
  O  O256  1  0.018500  0.649400  0.295400  1.0  -0.7238
  O  O257  1  0.527100  0.282300  0.392100  1.0  -0.8974
  O  O258  1  0.631600  0.345900  0.486700  1.0  -0.6575
  O  O259  1  0.453100  0.192900  0.096500  1.0  -0.7979
  O  O260  1  0.568200  0.185500  0.963600  1.0  -0.7606
  O  O261  1  0.166600  0.825100  0.135700  1.0  -0.8244
  O  O262  1  0.006900  0.864900  0.217100  1.0  -0.6937
  O  O263  1  0.928000  0.217100  0.076600  1.0  -0.7053
  O  O264  1  0.740300  0.191600  0.138200  1.0  -0.8284
  O  O265  1  0.265400  0.714900  0.206800  1.0  -0.8015
  O  O266  1  0.417900  0.687700  0.104500  1.0  -0.6786
  O  O267  1  0.633100  0.304000  0.097100  1.0  -0.8653
  O  O268  1  0.518500  0.350600  0.204600  1.0  -0.7253
  O  O269  1  0.027100  0.717700  0.107900  1.0  -0.8992
  O  O270  1  0.131600  0.654100  0.013300  1.0  -0.6585
  O  O271  1  0.953100  0.807100  0.403500  1.0  -0.7949
  O  O272  1  0.068200  0.814500  0.536400  1.0  -0.7603
