# generated using pymatgen
data_NdH12(C5O2)3
_symmetry_space_group_name_H-M   'P 1'
_cell_length_a   10.16180000
_cell_length_b   21.97470000
_cell_length_c   14.11400000
_cell_angle_alpha   91.53300000
_cell_angle_beta   90.00000000
_cell_angle_gamma   90.00000000
_symmetry_Int_Tables_number   1
_chemical_formula_structural   NdH12(C5O2)3
_chemical_formula_sum   'Nd8 H96 C120 O48'
_cell_volume   3150.56353007
_cell_formula_units_Z   8
loop_
 _symmetry_equiv_pos_site_id
 _symmetry_equiv_pos_as_xyz
  1  'x, y, z'
loop_
 _atom_site_type_symbol
 _atom_site_label
 _atom_site_symmetry_multiplicity
 _atom_site_fract_x
 _atom_site_fract_y
 _atom_site_fract_z
 _atom_site_occupancy
 _atom_site_charge
  Nd  Nd1  1  0.559490  0.740560  0.232350  1.0  2.3222
  Nd  Nd2  1  0.749620  0.750720  0.974470  1.0  2.3253
  Nd  Nd3  1  0.059490  0.259440  0.267650  1.0  2.322
  Nd  Nd4  1  0.249620  0.249280  0.525530  1.0  2.3253
  Nd  Nd5  1  0.440510  0.259440  0.767650  1.0  2.3213
  Nd  Nd6  1  0.250380  0.249280  0.025530  1.0  2.3254
  Nd  Nd7  1  0.940510  0.740560  0.732350  1.0  2.3215
  Nd  Nd8  1  0.750380  0.750720  0.474470  1.0  2.3253
  H  H9  1  0.877500  0.659100  0.277200  1.0  0.1291
  H  H10  1  0.012100  0.685400  0.241700  1.0  0.1419
  H  H11  1  0.796700  0.561100  0.188100  1.0  0.1084
  H  H12  1  0.858200  0.465900  0.132400  1.0  0.1055
  H  H13  1  0.232300  0.518700  0.128600  1.0  0.092
  H  H14  1  0.173300  0.614200  0.183500  1.0  0.1148
  H  H15  1  0.038200  0.411300  0.029300  1.0  0.1487
  H  H16  1  0.182900  0.424100  0.061700  1.0  0.1461
  H  H17  1  0.684100  0.915500  0.053300  1.0  0.1551
  H  H18  1  0.541800  0.905300  0.013900  1.0  0.15
  H  H19  1  0.726400  0.007100  0.135300  1.0  0.0927
  H  H20  1  0.660400  0.097200  0.208400  1.0  0.1072
  H  H21  1  0.287700  0.043500  0.188800  1.0  0.1002
  H  H22  1  0.353200  0.953600  0.116000  1.0  0.1063
  H  H23  1  0.354000  0.129600  0.301400  1.0  0.1348
  H  H24  1  0.494100  0.157900  0.287400  1.0  0.1444
  H  H25  1  0.300400  0.622000  0.013800  1.0  0.1343
  H  H26  1  0.363700  0.626500  0.912700  1.0  0.1293
  H  H27  1  0.491600  0.567200  0.128200  1.0  0.1056
  H  H28  1  0.419200  0.527800  0.854600  1.0  0.0915
  H  H29  1  0.412300  0.884400  0.353700  1.0  0.139
  H  H30  1  0.348500  0.867400  0.450600  1.0  0.1524
  H  H31  1  0.535100  0.977600  0.341100  1.0  0.0944
  H  H32  1  0.404100  0.929000  0.594900  1.0  0.0989
  H  H33  1  0.377500  0.340900  0.222800  1.0  0.1276
  H  H34  1  0.512100  0.314600  0.258300  1.0  0.1409
  H  H35  1  0.296700  0.438900  0.311900  1.0  0.1083
  H  H36  1  0.358200  0.534100  0.367600  1.0  0.1057
  H  H37  1  0.732300  0.481300  0.371400  1.0  0.092
  H  H38  1  0.673300  0.385800  0.316500  1.0  0.1149
  H  H39  1  0.538200  0.588700  0.470700  1.0  0.1502
  H  H40  1  0.682900  0.575900  0.438300  1.0  0.1461
  H  H41  1  0.184100  0.084500  0.446700  1.0  0.1556
  H  H42  1  0.041800  0.094700  0.486100  1.0  0.1513
  H  H43  1  0.226400  0.992900  0.364700  1.0  0.0925
  H  H44  1  0.160400  0.902800  0.291600  1.0  0.1066
  H  H45  1  0.787700  0.956500  0.311200  1.0  0.1002
  H  H46  1  0.853200  0.046400  0.384000  1.0  0.1062
  H  H47  1  0.854000  0.870400  0.198600  1.0  0.1362
  H  H48  1  0.994100  0.842100  0.212600  1.0  0.1446
  H  H49  1  0.800400  0.378000  0.486200  1.0  0.1348
  H  H50  1  0.863700  0.373500  0.587300  1.0  0.1293
  H  H51  1  0.991600  0.432800  0.371800  1.0  0.1057
  H  H52  1  0.919200  0.472200  0.645400  1.0  0.0905
  H  H53  1  0.912300  0.115600  0.146300  1.0  0.1407
  H  H54  1  0.848500  0.132600  0.049400  1.0  0.152
  H  H55  1  0.035100  0.022400  0.158900  1.0  0.0937
  H  H56  1  0.904100  0.071000  0.905100  1.0  0.0989
  H  H57  1  0.122500  0.340900  0.722800  1.0  0.1272
  H  H58  1  0.987900  0.314600  0.758300  1.0  0.1415
  H  H59  1  0.203300  0.438900  0.811900  1.0  0.108
  H  H60  1  0.141800  0.534100  0.867600  1.0  0.1058
  H  H61  1  0.767700  0.481300  0.871400  1.0  0.092
  H  H62  1  0.826700  0.385800  0.816500  1.0  0.1141
  H  H63  1  0.961800  0.588700  0.970700  1.0  0.1495
  H  H64  1  0.817100  0.575900  0.938300  1.0  0.1471
  H  H65  1  0.315900  0.084500  0.946700  1.0  0.1551
  H  H66  1  0.458200  0.094700  0.986100  1.0  0.1507
  H  H67  1  0.273600  0.992900  0.864700  1.0  0.0916
  H  H68  1  0.339600  0.902800  0.791600  1.0  0.1058
  H  H69  1  0.712300  0.956500  0.811200  1.0  0.101
  H  H70  1  0.646800  0.046400  0.884000  1.0  0.1061
  H  H71  1  0.646000  0.870400  0.698600  1.0  0.1348
  H  H72  1  0.505900  0.842100  0.712600  1.0  0.1452
  H  H73  1  0.699600  0.378000  0.986200  1.0  0.1338
  H  H74  1  0.636300  0.373500  0.087300  1.0  0.1292
  H  H75  1  0.508400  0.432800  0.871800  1.0  0.1057
  H  H76  1  0.580800  0.472200  0.145400  1.0  0.0907
  H  H77  1  0.587700  0.115600  0.646300  1.0  0.1406
  H  H78  1  0.651500  0.132600  0.549400  1.0  0.1519
  H  H79  1  0.464900  0.022400  0.658900  1.0  0.0938
  H  H80  1  0.595900  0.071000  0.405100  1.0  0.0987
  H  H81  1  0.622500  0.659100  0.777200  1.0  0.129
  H  H82  1  0.487900  0.685400  0.741700  1.0  0.1422
  H  H83  1  0.703300  0.561100  0.688100  1.0  0.1078
  H  H84  1  0.641800  0.465900  0.632400  1.0  0.106
  H  H85  1  0.267700  0.518700  0.628600  1.0  0.0918
  H  H86  1  0.326700  0.614200  0.683500  1.0  0.1151
  H  H87  1  0.461800  0.411300  0.529300  1.0  0.1478
  H  H88  1  0.317100  0.424100  0.561700  1.0  0.1472
  H  H89  1  0.815900  0.915500  0.553300  1.0  0.1548
  H  H90  1  0.958200  0.905300  0.513900  1.0  0.1496
  H  H91  1  0.773600  0.007100  0.635300  1.0  0.0916
  H  H92  1  0.839600  0.097200  0.708400  1.0  0.1074
  H  H93  1  0.212300  0.043500  0.688800  1.0  0.1008
  H  H94  1  0.146800  0.953600  0.616000  1.0  0.1067
  H  H95  1  0.146000  0.129600  0.801400  1.0  0.1365
  H  H96  1  0.005900  0.157900  0.787400  1.0  0.1453
  H  H97  1  0.199600  0.622000  0.513800  1.0  0.1332
  H  H98  1  0.136300  0.626500  0.412700  1.0  0.1294
  H  H99  1  0.008400  0.567200  0.628200  1.0  0.1056
  H  H100  1  0.080800  0.527800  0.354600  1.0  0.0916
  H  H101  1  0.087700  0.884400  0.853700  1.0  0.139
  H  H102  1  0.151500  0.867400  0.950600  1.0  0.1511
  H  H103  1  0.964900  0.977600  0.841100  1.0  0.0947
  H  H104  1  0.095900  0.929000  0.094900  1.0  0.0991
  C  C105  1  0.865100  0.692460  0.143400  1.0  0.7923
  C  C106  1  0.935400  0.661730  0.222900  1.0  -0.3831
  C  C107  1  0.977300  0.598590  0.190300  1.0  0.1047
  C  C108  1  0.884900  0.553070  0.175600  1.0  -0.1297
  C  C109  1  0.921900  0.495730  0.142300  1.0  -0.1147
  C  C110  1  0.051500  0.482430  0.124000  1.0  0.1106
  C  C111  1  0.144100  0.527270  0.140100  1.0  -0.1302
  C  C112  1  0.108900  0.584720  0.172900  1.0  -0.148
  C  C113  1  0.092900  0.420990  0.083900  1.0  -0.3919
  C  C114  1  0.085100  0.368810  0.150700  1.0  0.8145
  C  C115  1  0.579800  0.854470  0.129400  1.0  0.8075
  C  C116  1  0.592600  0.911190  0.071600  1.0  -0.4061
  C  C117  1  0.548900  0.970060  0.119500  1.0  0.1118
  C  C118  1  0.637300  0.013790  0.146500  1.0  -0.1338
  C  C119  1  0.597700  0.068250  0.190400  1.0  -0.1361
  C  C120  1  0.466900  0.079580  0.207200  1.0  0.1093
  C  C121  1  0.376900  0.036260  0.178600  1.0  -0.1305
  C  C122  1  0.416100  0.982120  0.135100  1.0  -0.1195
  C  C123  1  0.420600  0.138610  0.254600  1.0  -0.3723
  C  C124  1  0.364800  0.181980  0.184700  1.0  0.7999
  C  C125  1  0.473600  0.670210  0.016000  1.0  0.8565
  C  C126  1  0.382800  0.620190  0.979100  1.0  -0.3662
  C  C127  1  0.444800  0.558030  0.989900  1.0  0.0956
  C  C128  1  0.494600  0.540210  0.076300  1.0  -0.1261
  C  C129  1  0.451500  0.516740  0.913400  1.0  -0.1297
  C  C130  1  0.535100  0.835150  0.435700  1.0  0.8083
  C  C131  1  0.428900  0.881330  0.421100  1.0  -0.3908
  C  C132  1  0.463300  0.943250  0.461400  1.0  0.108
  C  C133  1  0.520700  0.986330  0.405200  1.0  -0.1285
  C  C134  1  0.442900  0.957530  0.556300  1.0  -0.1267
  C  C135  1  0.365100  0.307540  0.356600  1.0  0.7911
  C  C136  1  0.435400  0.338270  0.277100  1.0  -0.3812
  C  C137  1  0.477300  0.401410  0.309700  1.0  0.1047
  C  C138  1  0.384900  0.446930  0.324400  1.0  -0.1299
  C  C139  1  0.421900  0.504270  0.357700  1.0  -0.1149
  C  C140  1  0.551500  0.517570  0.376000  1.0  0.1104
  C  C141  1  0.644100  0.472730  0.359900  1.0  -0.1295
  C  C142  1  0.608900  0.415280  0.327100  1.0  -0.1474
  C  C143  1  0.592900  0.579010  0.416100  1.0  -0.3947
  C  C144  1  0.585100  0.631190  0.349300  1.0  0.8162
  C  C145  1  0.079800  0.145530  0.370600  1.0  0.8093
  C  C146  1  0.092600  0.088810  0.428400  1.0  -0.4059
  C  C147  1  0.048900  0.029940  0.380500  1.0  0.1114
  C  C148  1  0.137300  0.986210  0.353500  1.0  -0.1344
  C  C149  1  0.097700  0.931750  0.309600  1.0  -0.1346
  C  C150  1  0.966900  0.920420  0.292800  1.0  0.1089
  C  C151  1  0.876900  0.963740  0.321400  1.0  -0.1303
  C  C152  1  0.916100  0.017880  0.364900  1.0  -0.1204
  C  C153  1  0.920600  0.861390  0.245400  1.0  -0.3735
  C  C154  1  0.864800  0.818020  0.315300  1.0  0.7996
  C  C155  1  0.973600  0.329790  0.484000  1.0  0.8559
  C  C156  1  0.882800  0.379810  0.520900  1.0  -0.3659
  C  C157  1  0.944800  0.441970  0.510100  1.0  0.096
  C  C158  1  0.994600  0.459790  0.423700  1.0  -0.1264
  C  C159  1  0.951500  0.483260  0.586600  1.0  -0.1309
  C  C160  1  0.035100  0.164850  0.064300  1.0  0.8081
  C  C161  1  0.928900  0.118670  0.078900  1.0  -0.3904
  C  C162  1  0.963300  0.056750  0.038600  1.0  0.1073
  C  C163  1  0.020700  0.013670  0.094800  1.0  -0.1297
  C  C164  1  0.942900  0.042470  0.943700  1.0  -0.1276
  C  C165  1  0.134900  0.307540  0.856600  1.0  0.7913
  C  C166  1  0.064600  0.338270  0.777100  1.0  -0.3813
  C  C167  1  0.022700  0.401410  0.809700  1.0  0.1047
  C  C168  1  0.115100  0.446930  0.824400  1.0  -0.1306
  C  C169  1  0.078100  0.504270  0.857700  1.0  -0.1156
  C  C170  1  0.948500  0.517570  0.876000  1.0  0.1104
  C  C171  1  0.855900  0.472730  0.859900  1.0  -0.128
  C  C172  1  0.891100  0.415280  0.827100  1.0  -0.1469
  C  C173  1  0.907100  0.579010  0.916100  1.0  -0.3956
  C  C174  1  0.914900  0.631190  0.849300  1.0  0.8162
  C  C175  1  0.420200  0.145530  0.870600  1.0  0.8071
  C  C176  1  0.407400  0.088810  0.928400  1.0  -0.4066
  C  C177  1  0.451100  0.029940  0.880500  1.0  0.1115
  C  C178  1  0.362700  0.986210  0.853500  1.0  -0.1341
  C  C179  1  0.402300  0.931750  0.809600  1.0  -0.1343
  C  C180  1  0.533100  0.920420  0.792800  1.0  0.1087
  C  C181  1  0.623100  0.963740  0.821400  1.0  -0.1292
  C  C182  1  0.583900  0.017880  0.864900  1.0  -0.1213
  C  C183  1  0.579400  0.861390  0.745400  1.0  -0.3734
  C  C184  1  0.635200  0.818020  0.815300  1.0  0.7997
  C  C185  1  0.526400  0.329790  0.984000  1.0  0.8571
  C  C186  1  0.617200  0.379810  0.020900  1.0  -0.3656
  C  C187  1  0.555200  0.441970  0.010100  1.0  0.0961
  C  C188  1  0.505400  0.459790  0.923700  1.0  -0.1263
  C  C189  1  0.548500  0.483260  0.086600  1.0  -0.1325
  C  C190  1  0.464900  0.164850  0.564300  1.0  0.8063
  C  C191  1  0.571100  0.118670  0.578900  1.0  -0.3902
  C  C192  1  0.536700  0.056750  0.538600  1.0  0.1084
  C  C193  1  0.479300  0.013670  0.594800  1.0  -0.1307
  C  C194  1  0.557100  0.042470  0.443700  1.0  -0.1203
  C  C195  1  0.634900  0.692460  0.643400  1.0  0.7912
  C  C196  1  0.564600  0.661730  0.722900  1.0  -0.3839
  C  C197  1  0.522700  0.598590  0.690300  1.0  0.1043
  C  C198  1  0.615100  0.553070  0.675600  1.0  -0.1307
  C  C199  1  0.578100  0.495730  0.642300  1.0  -0.1155
  C  C200  1  0.448500  0.482430  0.624000  1.0  0.1107
  C  C201  1  0.355900  0.527270  0.640100  1.0  -0.1287
  C  C202  1  0.391100  0.584720  0.672900  1.0  -0.1477
  C  C203  1  0.407100  0.420990  0.583900  1.0  -0.3921
  C  C204  1  0.414900  0.368810  0.650700  1.0  0.8149
  C  C205  1  0.920200  0.854470  0.629400  1.0  0.8065
  C  C206  1  0.907400  0.911190  0.571600  1.0  -0.4063
  C  C207  1  0.951100  0.970060  0.619500  1.0  0.1117
  C  C208  1  0.862700  0.013790  0.646500  1.0  -0.1334
  C  C209  1  0.902300  0.068250  0.690400  1.0  -0.1354
  C  C210  1  0.033100  0.079580  0.707200  1.0  0.109
  C  C211  1  0.123100  0.036260  0.678600  1.0  -0.1295
  C  C212  1  0.083900  0.982120  0.635100  1.0  -0.1205
  C  C213  1  0.079400  0.138610  0.754600  1.0  -0.373
  C  C214  1  0.135200  0.181980  0.684700  1.0  0.7998
  C  C215  1  0.026400  0.670210  0.516000  1.0  0.8566
  C  C216  1  0.117200  0.620190  0.479100  1.0  -0.3656
  C  C217  1  0.055200  0.558030  0.489900  1.0  0.096
  C  C218  1  0.005400  0.540210  0.576300  1.0  -0.1261
  C  C219  1  0.048500  0.516740  0.413400  1.0  -0.1317
  C  C220  1  0.964900  0.835150  0.935700  1.0  0.8072
  C  C221  1  0.071100  0.881330  0.921100  1.0  -0.3908
  C  C222  1  0.036700  0.943250  0.961400  1.0  0.109
  C  C223  1  0.979300  0.986330  0.905200  1.0  -0.1296
  C  C224  1  0.057100  0.957530  0.056300  1.0  -0.1188
  O  O225  1  0.740700  0.691980  0.138360  1.0  -0.839
  O  O226  1  0.930400  0.716760  0.079250  1.0  -0.6975
  O  O227  1  0.163300  0.324610  0.135160  1.0  -0.8389
  O  O228  1  0.006900  0.367090  0.217230  1.0  -0.6793
  O  O229  1  0.633000  0.805440  0.097730  1.0  -0.884
  O  O230  1  0.519800  0.853540  0.205040  1.0  -0.6931
  O  O231  1  0.265900  0.214520  0.204860  1.0  -0.8322
  O  O232  1  0.419800  0.187030  0.105730  1.0  -0.6715
  O  O233  1  0.567000  0.684580  0.964580  1.0  -0.753
  O  O234  1  0.450500  0.693660  0.096040  1.0  -0.7942
  O  O235  1  0.630900  0.846760  0.487840  1.0  -0.6633
  O  O236  1  0.526500  0.782970  0.393400  1.0  -0.876
  O  O237  1  0.240700  0.308020  0.361640  1.0  -0.8387
  O  O238  1  0.430400  0.283240  0.420750  1.0  -0.7004
  O  O239  1  0.663300  0.675390  0.364840  1.0  -0.8391
  O  O240  1  0.506900  0.632910  0.282770  1.0  -0.6798
  O  O241  1  0.133000  0.194560  0.402270  1.0  -0.8849
  O  O242  1  0.019800  0.146460  0.294960  1.0  -0.6922
  O  O243  1  0.765900  0.785480  0.295140  1.0  -0.8357
  O  O244  1  0.919800  0.812970  0.394270  1.0  -0.6741
  O  O245  1  0.067000  0.315420  0.535420  1.0  -0.7528
  O  O246  1  0.950500  0.306340  0.403960  1.0  -0.7915
  O  O247  1  0.130900  0.153240  0.012160  1.0  -0.6635
  O  O248  1  0.026500  0.217030  0.106600  1.0  -0.878
  O  O249  1  0.259300  0.308020  0.861640  1.0  -0.838
  O  O250  1  0.069600  0.283240  0.920750  1.0  -0.6983
  O  O251  1  0.836700  0.675390  0.864840  1.0  -0.8408
  O  O252  1  0.993100  0.632910  0.782770  1.0  -0.6792
  O  O253  1  0.367000  0.194560  0.902270  1.0  -0.8848
  O  O254  1  0.480200  0.146460  0.794960  1.0  -0.6906
  O  O255  1  0.734100  0.785480  0.795140  1.0  -0.8312
  O  O256  1  0.580200  0.812970  0.894270  1.0  -0.673
  O  O257  1  0.433000  0.315420  0.035420  1.0  -0.7526
  O  O258  1  0.549500  0.306340  0.903960  1.0  -0.7917
  O  O259  1  0.369100  0.153240  0.512160  1.0  -0.6619
  O  O260  1  0.473500  0.217030  0.606600  1.0  -0.8762
  O  O261  1  0.759300  0.691980  0.638360  1.0  -0.838
  O  O262  1  0.569600  0.716760  0.579250  1.0  -0.698
  O  O263  1  0.336700  0.324610  0.635160  1.0  -0.8405
  O  O264  1  0.493100  0.367090  0.717230  1.0  -0.6791
  O  O265  1  0.867000  0.805440  0.597730  1.0  -0.8849
  O  O266  1  0.980200  0.853540  0.705040  1.0  -0.6931
  O  O267  1  0.234100  0.214520  0.704860  1.0  -0.8346
  O  O268  1  0.080200  0.187030  0.605730  1.0  -0.6715
  O  O269  1  0.933000  0.684580  0.464580  1.0  -0.7526
  O  O270  1  0.049500  0.693660  0.596040  1.0  -0.795
  O  O271  1  0.869100  0.846760  0.987840  1.0  -0.6621
  O  O272  1  0.973500  0.782970  0.893400  1.0  -0.8775
