# generated using pymatgen
data_AgH10C7N2
_symmetry_space_group_name_H-M   'P 1'
_cell_length_a   11.15400000
_cell_length_b   7.79200000
_cell_length_c   12.37500000
_cell_angle_alpha   90.00000000
_cell_angle_beta   90.00000000
_cell_angle_gamma   90.00000000
_symmetry_Int_Tables_number   1
_chemical_formula_structural   AgH10C7N2
_chemical_formula_sum   'Ag4 H40 C28 N8'
_cell_volume   1075.53560400
_cell_formula_units_Z   4
loop_
 _symmetry_equiv_pos_site_id
 _symmetry_equiv_pos_as_xyz
  1  'x, y, z'
loop_
 _atom_site_type_symbol
 _atom_site_label
 _atom_site_symmetry_multiplicity
 _atom_site_fract_x
 _atom_site_fract_y
 _atom_site_fract_z
 _atom_site_occupancy
 _atom_site_charge
  Ag  Ag1  1  0.201240  0.850450  0.500000  1.0  0.2619
  Ag  Ag2  1  0.798760  0.149550  0.000000  1.0  0.2638
  Ag  Ag3  1  0.701240  0.649550  0.500000  1.0  0.2629
  Ag  Ag4  1  0.298760  0.350450  0.000000  1.0  0.2627
  H  H5  1  0.202000  0.536000  0.560000  1.0  0.1966
  H  H6  1  0.326000  0.594000  0.589000  1.0  0.259
  H  H7  1  0.216000  0.561000  0.390000  1.0  0.0668
  H  H8  1  0.382000  0.712000  0.322000  1.0  0.06
  H  H9  1  0.482000  0.647000  0.406000  1.0  0.0686
  H  H10  1  0.485000  0.356000  0.472000  1.0  0.0519
  H  H11  1  0.493000  0.223000  0.368000  1.0  0.0487
  H  H12  1  0.685000  0.309000  0.459000  1.0  0.0454
  H  H13  1  0.807000  0.479000  0.339000  1.0  0.1424
  H  H14  1  0.681000  0.536000  0.281000  1.0  0.0799
  H  H15  1  0.798000  0.464000  0.060000  1.0  0.1972
  H  H16  1  0.674000  0.406000  0.089000  1.0  0.2596
  H  H17  1  0.784000  0.439000  0.890000  1.0  0.0658
  H  H18  1  0.618000  0.288000  0.822000  1.0  0.0606
  H  H19  1  0.518000  0.353000  0.906000  1.0  0.0676
  H  H20  1  0.515000  0.644000  0.972000  1.0  0.0509
  H  H21  1  0.507000  0.777000  0.868000  1.0  0.0485
  H  H22  1  0.315000  0.691000  0.959000  1.0  0.0458
  H  H23  1  0.193000  0.521000  0.839000  1.0  0.1417
  H  H24  1  0.319000  0.464000  0.781000  1.0  0.08
  H  H25  1  0.702000  0.964000  0.560000  1.0  0.1958
  H  H26  1  0.826000  0.906000  0.589000  1.0  0.2591
  H  H27  1  0.716000  0.939000  0.390000  1.0  0.067
  H  H28  1  0.882000  0.788000  0.322000  1.0  0.0602
  H  H29  1  0.982000  0.853000  0.406000  1.0  0.0687
  H  H30  1  0.985000  0.144000  0.472000  1.0  0.0513
  H  H31  1  0.993000  0.277000  0.368000  1.0  0.0489
  H  H32  1  0.185000  0.191000  0.459000  1.0  0.0454
  H  H33  1  0.307000  0.021000  0.339000  1.0  0.1423
  H  H34  1  0.181000  0.964000  0.281000  1.0  0.0798
  H  H35  1  0.298000  0.036000  0.060000  1.0  0.1982
  H  H36  1  0.174000  0.094000  0.089000  1.0  0.2595
  H  H37  1  0.284000  0.061000  0.890000  1.0  0.0655
  H  H38  1  0.118000  0.212000  0.822000  1.0  0.0601
  H  H39  1  0.018000  0.147000  0.906000  1.0  0.068
  H  H40  1  0.015000  0.856000  0.972000  1.0  0.0514
  H  H41  1  0.007000  0.723000  0.868000  1.0  0.0484
  H  H42  1  0.815000  0.809000  0.959000  1.0  0.0459
  H  H43  1  0.693000  0.979000  0.839000  1.0  0.1418
  H  H44  1  0.819000  0.036000  0.781000  1.0  0.0797
  C  C45  1  0.273800  0.570100  0.534300  1.0  -0.1501
  C  C46  1  0.285500  0.589100  0.426500  1.0  -0.2383
  C  C47  1  0.402800  0.632600  0.375600  1.0  -0.1735
  C  C48  1  0.521200  0.354600  0.398200  1.0  -0.1508
  C  C49  1  0.652600  0.380200  0.405500  1.0  -0.2224
  C  C50  1  0.720500  0.478700  0.339200  1.0  -0.0631
  C  C51  1  0.435800  0.440200  0.228100  1.0  0.3199
  C  C52  1  0.726200  0.429900  0.034300  1.0  -0.1498
  C  C53  1  0.714500  0.410900  0.926500  1.0  -0.2395
  C  C54  1  0.597200  0.367400  0.875600  1.0  -0.1756
  C  C55  1  0.478800  0.645400  0.898200  1.0  -0.1513
  C  C56  1  0.347400  0.619800  0.905500  1.0  -0.2241
  C  C57  1  0.279500  0.521300  0.839200  1.0  -0.064
  C  C58  1  0.564200  0.559800  0.728100  1.0  0.3195
  C  C59  1  0.773800  0.929900  0.534300  1.0  -0.1507
  C  C60  1  0.785500  0.910900  0.426500  1.0  -0.2383
  C  C61  1  0.902800  0.867400  0.375600  1.0  -0.1761
  C  C62  1  0.021200  0.145400  0.398200  1.0  -0.1512
  C  C63  1  0.152600  0.119800  0.405500  1.0  -0.2225
  C  C64  1  0.220500  0.021300  0.339200  1.0  -0.0628
  C  C65  1  0.935800  0.059800  0.228100  1.0  0.32
  C  C66  1  0.226200  0.070100  0.034300  1.0  -0.1497
  C  C67  1  0.214500  0.089100  0.926500  1.0  -0.2395
  C  C68  1  0.097200  0.132600  0.875600  1.0  -0.1734
  C  C69  1  0.978800  0.854600  0.898200  1.0  -0.1511
  C  C70  1  0.847400  0.880200  0.905500  1.0  -0.2239
  C  C71  1  0.779500  0.978700  0.839200  1.0  -0.0649
  C  C72  1  0.064200  0.940200  0.728100  1.0  0.3196
  N  N73  1  0.459400  0.478900  0.328100  1.0  0.0031
  N  N74  1  0.416600  0.408000  0.138400  1.0  -0.6026
  N  N75  1  0.540600  0.521100  0.828100  1.0  0.0036
  N  N76  1  0.583400  0.592000  0.638400  1.0  -0.6027
  N  N77  1  0.959400  0.021100  0.328100  1.0  0.0036
  N  N78  1  0.916600  0.092000  0.138400  1.0  -0.6024
  N  N79  1  0.040600  0.978900  0.828100  1.0  0.0029
  N  N80  1  0.083400  0.908000  0.638400  1.0  -0.603
