# generated using pymatgen
data_CdH13C18N3O4
_symmetry_space_group_name_H-M   'P 1'
_cell_length_a   11.69000000
_cell_length_b   25.29000000
_cell_length_c   25.29000000
_cell_angle_alpha   120.00000000
_cell_angle_beta   90.00000000
_cell_angle_gamma   90.00000000
_symmetry_Int_Tables_number   1
_chemical_formula_structural   CdH13C18N3O4
_chemical_formula_sum   'Cd6 H78 C108 N18 O24'
_cell_volume   6475.04515716
_cell_formula_units_Z   6
loop_
 _symmetry_equiv_pos_site_id
 _symmetry_equiv_pos_as_xyz
  1  'x, y, z'
loop_
 _atom_site_type_symbol
 _atom_site_label
 _atom_site_symmetry_multiplicity
 _atom_site_fract_x
 _atom_site_fract_y
 _atom_site_fract_z
 _atom_site_occupancy
 _atom_site_charge
  Cd  Cd1  1  0.000000  0.412390  0.937470  1.0  1.0134
  Cd  Cd2  1  0.000000  0.525080  0.587610  1.0  1.015
  Cd  Cd3  1  0.000000  0.062530  0.474920  1.0  1.0127
  Cd  Cd4  1  0.000000  0.587610  0.062530  1.0  1.0146
  Cd  Cd5  1  0.000000  0.474920  0.412390  1.0  1.0151
  Cd  Cd6  1  0.000000  0.937470  0.525080  1.0  1.0124
  H  H7  1  0.220200  0.382500  0.988700  1.0  0.0766
  H  H8  1  0.415000  0.386500  0.992800  1.0  0.1317
  H  H9  1  0.410500  0.447100  0.879700  1.0  0.105
  H  H10  1  0.216300  0.449300  0.884200  1.0  0.0668
  H  H11  1  0.220200  0.606200  0.617500  1.0  0.0784
  H  H12  1  0.415000  0.606300  0.613500  1.0  0.1315
  H  H13  1  0.410500  0.432600  0.552900  1.0  0.1047
  H  H14  1  0.216300  0.434900  0.550700  1.0  0.0646
  H  H15  1  0.220200  0.011300  0.393800  1.0  0.0766
  H  H16  1  0.415000  0.007200  0.393700  1.0  0.1316
  H  H17  1  0.410500  0.120300  0.567400  1.0  0.1053
  H  H18  1  0.216300  0.115800  0.565100  1.0  0.0639
  H  H19  1  0.220200  0.617500  0.011300  1.0  0.0768
  H  H20  1  0.415000  0.613500  0.007200  1.0  0.1318
  H  H21  1  0.410500  0.552900  0.120300  1.0  0.1048
  H  H22  1  0.216300  0.550700  0.115800  1.0  0.066
  H  H23  1  0.220200  0.393800  0.382500  1.0  0.0784
  H  H24  1  0.415000  0.393700  0.386500  1.0  0.1303
  H  H25  1  0.410500  0.567400  0.447100  1.0  0.1038
  H  H26  1  0.216300  0.565100  0.449300  1.0  0.0653
  H  H27  1  0.220200  0.988700  0.606200  1.0  0.0761
  H  H28  1  0.415000  0.992800  0.606300  1.0  0.1325
  H  H29  1  0.410500  0.879700  0.432600  1.0  0.1059
  H  H30  1  0.216300  0.884200  0.434900  1.0  0.0639
  H  H31  1  0.779800  0.617500  0.011300  1.0  0.0767
  H  H32  1  0.585000  0.613500  0.007200  1.0  0.1323
  H  H33  1  0.589500  0.552900  0.120300  1.0  0.1051
  H  H34  1  0.783700  0.550700  0.115800  1.0  0.066
  H  H35  1  0.779800  0.393800  0.382500  1.0  0.0784
  H  H36  1  0.585000  0.393700  0.386500  1.0  0.1303
  H  H37  1  0.589500  0.567400  0.447100  1.0  0.1044
  H  H38  1  0.783700  0.565100  0.449300  1.0  0.0652
  H  H39  1  0.779800  0.988700  0.606200  1.0  0.0763
  H  H40  1  0.585000  0.992800  0.606300  1.0  0.1328
  H  H41  1  0.589500  0.879700  0.432600  1.0  0.1059
  H  H42  1  0.783700  0.884200  0.434900  1.0  0.0637
  H  H43  1  0.779800  0.382500  0.988700  1.0  0.077
  H  H44  1  0.585000  0.386500  0.992800  1.0  0.1317
  H  H45  1  0.589500  0.447100  0.879700  1.0  0.1049
  H  H46  1  0.783700  0.449300  0.884200  1.0  0.0665
  H  H47  1  0.779800  0.606200  0.617500  1.0  0.0783
  H  H48  1  0.585000  0.606300  0.613500  1.0  0.1319
  H  H49  1  0.589500  0.432600  0.552900  1.0  0.1044
  H  H50  1  0.783700  0.434900  0.550700  1.0  0.0649
  H  H51  1  0.779800  0.011300  0.393800  1.0  0.0767
  H  H52  1  0.585000  0.007200  0.393700  1.0  0.132
  H  H53  1  0.589500  0.120300  0.567400  1.0  0.1055
  H  H54  1  0.783700  0.115800  0.565100  1.0  0.0639
  H  H55  1  0.000000  0.548400  0.171700  1.0  0.115
  H  H56  1  0.000000  0.582900  0.319400  1.0  0.2969
  H  H57  1  0.000000  0.607300  0.276600  1.0  0.2437
  H  H58  1  0.000000  0.378900  0.195300  1.0  0.0983
  H  H59  1  0.000000  0.368300  0.100300  1.0  0.1056
  H  H60  1  0.000000  0.623300  0.451600  1.0  0.1152
  H  H61  1  0.000000  0.736500  0.417100  1.0  0.2974
  H  H62  1  0.000000  0.669300  0.392700  1.0  0.2419
  H  H63  1  0.000000  0.816400  0.621100  1.0  0.1002
  H  H64  1  0.000000  0.732000  0.631700  1.0  0.105
  H  H65  1  0.000000  0.828300  0.376700  1.0  0.116
  H  H66  1  0.000000  0.680600  0.263500  1.0  0.2973
  H  H67  1  0.000000  0.723400  0.330700  1.0  0.2449
  H  H68  1  0.000000  0.804700  0.183600  1.0  0.1004
  H  H69  1  0.000000  0.899700  0.268000  1.0  0.106
  H  H70  1  0.000000  0.451600  0.828300  1.0  0.1144
  H  H71  1  0.000000  0.417100  0.680600  1.0  0.2971
  H  H72  1  0.000000  0.392700  0.723400  1.0  0.2436
  H  H73  1  0.000000  0.621100  0.804700  1.0  0.0996
  H  H74  1  0.000000  0.631700  0.899700  1.0  0.1056
  H  H75  1  0.000000  0.376700  0.548400  1.0  0.1148
  H  H76  1  0.000000  0.263500  0.582900  1.0  0.2964
  H  H77  1  0.000000  0.330700  0.607300  1.0  0.2419
  H  H78  1  0.000000  0.183600  0.378900  1.0  0.1002
  H  H79  1  0.000000  0.268000  0.368300  1.0  0.1056
  H  H80  1  0.000000  0.171700  0.623300  1.0  0.1175
  H  H81  1  0.000000  0.319400  0.736500  1.0  0.2986
  H  H82  1  0.000000  0.276600  0.669300  1.0  0.2445
  H  H83  1  0.000000  0.195300  0.816400  1.0  0.1001
  H  H84  1  0.000000  0.100300  0.732000  1.0  0.1059
  C  C85  1  0.258400  0.397800  0.967000  1.0  0.1747
  C  C86  1  0.376700  0.398500  0.968200  1.0  -0.1862
  C  C87  1  0.436800  0.416200  0.934900  1.0  0.0866
  C  C88  1  0.374300  0.434200  0.904000  1.0  -0.19
  C  C89  1  0.255700  0.434900  0.906400  1.0  0.1732
  C  C90  1  0.258400  0.569200  0.602200  1.0  0.1777
  C  C91  1  0.376700  0.569700  0.601500  1.0  -0.1841
  C  C92  1  0.436800  0.518700  0.583800  1.0  0.0879
  C  C93  1  0.374300  0.469800  0.565800  1.0  -0.1983
  C  C94  1  0.255700  0.471500  0.565100  1.0  0.1724
  C  C95  1  0.258400  0.033000  0.430800  1.0  0.1764
  C  C96  1  0.376700  0.031800  0.430300  1.0  -0.1875
  C  C97  1  0.436800  0.065100  0.481300  1.0  0.0855
  C  C98  1  0.374300  0.096000  0.530200  1.0  -0.1935
  C  C99  1  0.255700  0.093600  0.528500  1.0  0.1732
  C  C100  1  0.258400  0.602200  0.033000  1.0  0.1755
  C  C101  1  0.376700  0.601500  0.031800  1.0  -0.1841
  C  C102  1  0.436800  0.583800  0.065100  1.0  0.086
  C  C103  1  0.374300  0.565800  0.096000  1.0  -0.1897
  C  C104  1  0.255700  0.565100  0.093600  1.0  0.1716
  C  C105  1  0.258400  0.430800  0.397800  1.0  0.177
  C  C106  1  0.376700  0.430300  0.398500  1.0  -0.1862
  C  C107  1  0.436800  0.481300  0.416200  1.0  0.0863
  C  C108  1  0.374300  0.530200  0.434200  1.0  -0.1988
  C  C109  1  0.255700  0.528500  0.434900  1.0  0.1735
  C  C110  1  0.258400  0.967000  0.569200  1.0  0.1754
  C  C111  1  0.376700  0.968200  0.569700  1.0  -0.1853
  C  C112  1  0.436800  0.934900  0.518700  1.0  0.0858
  C  C113  1  0.374300  0.904000  0.469800  1.0  -0.1956
  C  C114  1  0.255700  0.906400  0.471500  1.0  0.1752
  C  C115  1  0.741600  0.602200  0.033000  1.0  0.1764
  C  C116  1  0.623300  0.601500  0.031800  1.0  -0.1852
  C  C117  1  0.563200  0.583800  0.065100  1.0  0.0863
  C  C118  1  0.625700  0.565800  0.096000  1.0  -0.1917
  C  C119  1  0.744300  0.565100  0.093600  1.0  0.1712
  C  C120  1  0.741600  0.430800  0.397800  1.0  0.1776
  C  C121  1  0.623300  0.430300  0.398500  1.0  -0.1872
  C  C122  1  0.563200  0.481300  0.416200  1.0  0.0871
  C  C123  1  0.625700  0.530200  0.434200  1.0  -0.199
  C  C124  1  0.744300  0.528500  0.434900  1.0  0.1734
  C  C125  1  0.741600  0.967000  0.569200  1.0  0.1769
  C  C126  1  0.623300  0.968200  0.569700  1.0  -0.1871
  C  C127  1  0.563200  0.934900  0.518700  1.0  0.0873
  C  C128  1  0.625700  0.904000  0.469800  1.0  -0.196
  C  C129  1  0.744300  0.906400  0.471500  1.0  0.1742
  C  C130  1  0.741600  0.397800  0.967000  1.0  0.1757
  C  C131  1  0.623300  0.398500  0.968200  1.0  -0.1872
  C  C132  1  0.563200  0.416200  0.934900  1.0  0.0877
  C  C133  1  0.625700  0.434200  0.904000  1.0  -0.1904
  C  C134  1  0.744300  0.434900  0.906400  1.0  0.1728
  C  C135  1  0.741600  0.569200  0.602200  1.0  0.1785
  C  C136  1  0.623300  0.569700  0.601500  1.0  -0.1855
  C  C137  1  0.563200  0.518700  0.583800  1.0  0.0891
  C  C138  1  0.625700  0.469800  0.565800  1.0  -0.1988
  C  C139  1  0.744300  0.471500  0.565100  1.0  0.1715
  C  C140  1  0.741600  0.033000  0.430800  1.0  0.1769
  C  C141  1  0.623300  0.031800  0.430300  1.0  -0.1885
  C  C142  1  0.563200  0.065100  0.481300  1.0  0.0865
  C  C143  1  0.625700  0.096000  0.530200  1.0  -0.1955
  C  C144  1  0.744300  0.093600  0.528500  1.0  0.1727
  C  C145  1  0.000000  0.449500  0.064900  1.0  0.6677
  C  C146  1  0.000000  0.457600  0.127500  1.0  -0.1037
  C  C147  1  0.000000  0.514200  0.176400  1.0  -0.1931
  C  C148  1  0.000000  0.520200  0.235600  1.0  0.2814
  C  C149  1  0.000000  0.470600  0.244000  1.0  -0.1905
  C  C150  1  0.000000  0.413700  0.191600  1.0  -0.0439
  C  C151  1  0.000000  0.407200  0.134600  1.0  -0.0608
  C  C152  1  0.000000  0.475000  0.304600  1.0  0.6843
  C  C153  1  0.000000  0.615400  0.550500  1.0  0.6689
  C  C154  1  0.000000  0.669900  0.542400  1.0  -0.102
  C  C155  1  0.000000  0.662200  0.485800  1.0  -0.1951
  C  C156  1  0.000000  0.715400  0.479800  1.0  0.28
  C  C157  1  0.000000  0.773400  0.529400  1.0  -0.1873
  C  C158  1  0.000000  0.777900  0.586300  1.0  -0.0439
  C  C159  1  0.000000  0.727400  0.592800  1.0  -0.0647
  C  C160  1  0.000000  0.829600  0.525000  1.0  0.6848
  C  C161  1  0.000000  0.935100  0.384600  1.0  0.6667
  C  C162  1  0.000000  0.872500  0.330100  1.0  -0.1029
  C  C163  1  0.000000  0.823600  0.337800  1.0  -0.1902
  C  C164  1  0.000000  0.764400  0.284600  1.0  0.2798
  C  C165  1  0.000000  0.756000  0.226600  1.0  -0.1886
  C  C166  1  0.000000  0.808400  0.222100  1.0  -0.0396
  C  C167  1  0.000000  0.865400  0.272600  1.0  -0.0632
  C  C168  1  0.000000  0.695400  0.170400  1.0  0.6828
  C  C169  1  0.000000  0.550500  0.935100  1.0  0.6691
  C  C170  1  0.000000  0.542400  0.872500  1.0  -0.1024
  C  C171  1  0.000000  0.485800  0.823600  1.0  -0.1919
  C  C172  1  0.000000  0.479800  0.764400  1.0  0.2805
  C  C173  1  0.000000  0.529400  0.756000  1.0  -0.1888
  C  C174  1  0.000000  0.586300  0.808400  1.0  -0.0421
  C  C175  1  0.000000  0.592800  0.865400  1.0  -0.0615
  C  C176  1  0.000000  0.525000  0.695400  1.0  0.6859
  C  C177  1  0.000000  0.384600  0.449500  1.0  0.6695
  C  C178  1  0.000000  0.330100  0.457600  1.0  -0.103
  C  C179  1  0.000000  0.337800  0.514200  1.0  -0.1958
  C  C180  1  0.000000  0.284600  0.520200  1.0  0.2801
  C  C181  1  0.000000  0.226600  0.470600  1.0  -0.1891
  C  C182  1  0.000000  0.222100  0.413700  1.0  -0.0446
  C  C183  1  0.000000  0.272600  0.407200  1.0  -0.063
  C  C184  1  0.000000  0.170400  0.475000  1.0  0.6824
  C  C185  1  0.000000  0.064900  0.615400  1.0  0.6658
  C  C186  1  0.000000  0.127500  0.669900  1.0  -0.1039
  C  C187  1  0.000000  0.176400  0.662200  1.0  -0.194
  C  C188  1  0.000000  0.235600  0.715400  1.0  0.2804
  C  C189  1  0.000000  0.244000  0.773400  1.0  -0.1892
  C  C190  1  0.000000  0.191600  0.777900  1.0  -0.0363
  C  C191  1  0.000000  0.134600  0.727400  1.0  -0.0619
  C  C192  1  0.000000  0.304600  0.829600  1.0  0.6834
  N  N193  1  0.197500  0.417000  0.937000  1.0  -0.3089
  N  N194  1  0.197500  0.520000  0.583000  1.0  -0.3081
  N  N195  1  0.197500  0.063000  0.480000  1.0  -0.3087
  N  N196  1  0.197500  0.583000  0.063000  1.0  -0.3092
  N  N197  1  0.197500  0.480000  0.417000  1.0  -0.3084
  N  N198  1  0.197500  0.937000  0.520000  1.0  -0.3077
  N  N199  1  0.802500  0.583000  0.063000  1.0  -0.3134
  N  N200  1  0.802500  0.480000  0.417000  1.0  -0.3119
  N  N201  1  0.802500  0.937000  0.520000  1.0  -0.3107
  N  N202  1  0.802500  0.417000  0.937000  1.0  -0.3121
  N  N203  1  0.802500  0.520000  0.583000  1.0  -0.3114
  N  N204  1  0.802500  0.063000  0.480000  1.0  -0.3124
  N  N205  1  0.000000  0.576800  0.282800  1.0  -0.6358
  N  N206  1  0.000000  0.706000  0.423200  1.0  -0.6343
  N  N207  1  0.000000  0.717200  0.294000  1.0  -0.6341
  N  N208  1  0.000000  0.423200  0.717200  1.0  -0.6357
  N  N209  1  0.000000  0.294000  0.576800  1.0  -0.6333
  N  N210  1  0.000000  0.282800  0.706000  1.0  -0.6336
  O  O211  1  0.000000  0.397400  0.019200  1.0  -0.6059
  O  O212  1  0.000000  0.497000  0.059700  1.0  -0.7212
  O  O213  1  0.000000  0.427600  0.308100  1.0  -0.5751
  O  O214  1  0.000000  0.526900  0.352300  1.0  -0.629
  O  O215  1  0.000000  0.621800  0.602600  1.0  -0.6071
  O  O216  1  0.000000  0.562700  0.503000  1.0  -0.7196
  O  O217  1  0.000000  0.880500  0.572400  1.0  -0.5785
  O  O218  1  0.000000  0.825400  0.473100  1.0  -0.627
  O  O219  1  0.000000  0.980800  0.378200  1.0  -0.6056
  O  O220  1  0.000000  0.940300  0.437300  1.0  -0.7198
  O  O221  1  0.000000  0.691900  0.119500  1.0  -0.5782
  O  O222  1  0.000000  0.647700  0.174600  1.0  -0.6276
  O  O223  1  0.000000  0.602600  0.980800  1.0  -0.6042
  O  O224  1  0.000000  0.503000  0.940300  1.0  -0.7215
  O  O225  1  0.000000  0.572400  0.691900  1.0  -0.5787
  O  O226  1  0.000000  0.473100  0.647700  1.0  -0.6286
  O  O227  1  0.000000  0.378200  0.397400  1.0  -0.6056
  O  O228  1  0.000000  0.437300  0.497000  1.0  -0.7197
  O  O229  1  0.000000  0.119500  0.427600  1.0  -0.5819
  O  O230  1  0.000000  0.174600  0.526900  1.0  -0.6268
  O  O231  1  0.000000  0.019200  0.621800  1.0  -0.6058
  O  O232  1  0.000000  0.059700  0.562700  1.0  -0.7194
  O  O233  1  0.000000  0.308100  0.880500  1.0  -0.5764
  O  O234  1  0.000000  0.352300  0.825400  1.0  -0.6279
