# generated using pymatgen
data_CdH13C18N3O4
_symmetry_space_group_name_H-M   'P 1'
_cell_length_a   11.72000000
_cell_length_b   13.70000000
_cell_length_c   21.05000000
_cell_angle_alpha   90.00000000
_cell_angle_beta   90.00000000
_cell_angle_gamma   90.00000000
_symmetry_Int_Tables_number   1
_chemical_formula_structural   CdH13C18N3O4
_chemical_formula_sum   'Cd4 H52 C72 N12 O16'
_cell_volume   3379.87220000
_cell_formula_units_Z   4
loop_
 _symmetry_equiv_pos_site_id
 _symmetry_equiv_pos_as_xyz
  1  'x, y, z'
loop_
 _atom_site_type_symbol
 _atom_site_label
 _atom_site_symmetry_multiplicity
 _atom_site_fract_x
 _atom_site_fract_y
 _atom_site_fract_z
 _atom_site_occupancy
 _atom_site_charge
  Cd  Cd1  1  0.000000  0.598690  0.434330  1.0  0.9775
  Cd  Cd2  1  0.000000  0.401310  0.565670  1.0  0.9773
  Cd  Cd3  1  0.000000  0.901310  0.934330  1.0  0.9771
  Cd  Cd4  1  0.000000  0.098690  0.065670  1.0  0.9774
  H  H5  1  0.783300  0.472400  0.380300  1.0  0.0997
  H  H6  1  0.585300  0.472700  0.378500  1.0  0.1294
  H  H7  1  0.582800  0.713800  0.487300  1.0  0.127
  H  H8  1  0.780700  0.713500  0.489000  1.0  0.1098
  H  H9  1  0.783300  0.527600  0.619700  1.0  0.0997
  H  H10  1  0.585300  0.527300  0.621500  1.0  0.129
  H  H11  1  0.582800  0.286200  0.512700  1.0  0.1271
  H  H12  1  0.780700  0.286500  0.511000  1.0  0.1112
  H  H13  1  0.216700  0.027600  0.880300  1.0  0.0995
  H  H14  1  0.414700  0.027300  0.878500  1.0  0.1294
  H  H15  1  0.417200  0.786200  0.987300  1.0  0.1272
  H  H16  1  0.219300  0.786500  0.989000  1.0  0.1102
  H  H17  1  0.216700  0.972400  0.119700  1.0  0.0999
  H  H18  1  0.414700  0.972700  0.121500  1.0  0.1297
  H  H19  1  0.417200  0.213800  0.012700  1.0  0.1273
  H  H20  1  0.219300  0.213500  0.011000  1.0  0.1099
  H  H21  1  0.216700  0.527600  0.619700  1.0  0.0998
  H  H22  1  0.414700  0.527300  0.621500  1.0  0.1292
  H  H23  1  0.417200  0.286200  0.512700  1.0  0.1273
  H  H24  1  0.219300  0.286500  0.511000  1.0  0.1104
  H  H25  1  0.216700  0.472400  0.380300  1.0  0.0992
  H  H26  1  0.414700  0.472700  0.378500  1.0  0.1296
  H  H27  1  0.417200  0.713800  0.487300  1.0  0.1269
  H  H28  1  0.219300  0.713500  0.489000  1.0  0.1097
  H  H29  1  0.783300  0.972400  0.119700  1.0  0.1002
  H  H30  1  0.585300  0.972700  0.121500  1.0  0.1296
  H  H31  1  0.582800  0.213800  0.012700  1.0  0.1273
  H  H32  1  0.780700  0.213500  0.011000  1.0  0.11
  H  H33  1  0.783300  0.027600  0.880300  1.0  0.0996
  H  H34  1  0.585300  0.027300  0.878500  1.0  0.1292
  H  H35  1  0.582800  0.786200  0.987300  1.0  0.1271
  H  H36  1  0.780700  0.786500  0.989000  1.0  0.1111
  H  H37  1  0.000000  0.577200  0.673800  1.0  0.0999
  H  H38  1  0.000000  0.651000  0.769000  1.0  0.0651
  H  H39  1  0.000000  0.843000  0.597800  1.0  0.1239
  H  H40  1  0.000000  0.975400  0.662600  1.0  0.3384
  H  H41  1  0.000000  0.969200  0.736600  1.0  0.3258
  H  H42  1  0.000000  0.422800  0.326200  1.0  0.1002
  H  H43  1  0.000000  0.349000  0.231000  1.0  0.0638
  H  H44  1  0.000000  0.157000  0.402200  1.0  0.1241
  H  H45  1  0.000000  0.024600  0.337400  1.0  0.3376
  H  H46  1  0.000000  0.030800  0.263400  1.0  0.3285
  H  H47  1  0.000000  0.922800  0.173800  1.0  0.0996
  H  H48  1  0.000000  0.849000  0.269000  1.0  0.0645
  H  H49  1  0.000000  0.657000  0.097800  1.0  0.1238
  H  H50  1  0.000000  0.524600  0.162600  1.0  0.3388
  H  H51  1  0.000000  0.530800  0.236600  1.0  0.3262
  H  H52  1  0.000000  0.077200  0.826200  1.0  0.1004
  H  H53  1  0.000000  0.151000  0.731000  1.0  0.0646
  H  H54  1  0.000000  0.343000  0.902200  1.0  0.1246
  H  H55  1  0.000000  0.475400  0.837400  1.0  0.3379
  H  H56  1  0.000000  0.469200  0.763400  1.0  0.3286
  C  C57  1  0.743100  0.520800  0.401730  1.0  0.1687
  C  C58  1  0.624500  0.521000  0.400690  1.0  -0.1904
  C  C59  1  0.564420  0.593300  0.432730  1.0  0.083
  C  C60  1  0.622900  0.665400  0.465810  1.0  -0.1971
  C  C61  1  0.741500  0.665200  0.466860  1.0  0.1659
  C  C62  1  0.743100  0.479200  0.598270  1.0  0.1684
  C  C63  1  0.624500  0.479000  0.599310  1.0  -0.1905
  C  C64  1  0.564420  0.406700  0.567270  1.0  0.0839
  C  C65  1  0.622900  0.334600  0.534190  1.0  -0.1986
  C  C66  1  0.741500  0.334800  0.533140  1.0  0.1657
  C  C67  1  0.256900  0.979200  0.901730  1.0  0.1677
  C  C68  1  0.375500  0.979000  0.900690  1.0  -0.1914
  C  C69  1  0.435580  0.906700  0.932730  1.0  0.0829
  C  C70  1  0.377100  0.834600  0.965810  1.0  -0.1985
  C  C71  1  0.258500  0.834800  0.966860  1.0  0.1659
  C  C72  1  0.256900  0.020800  0.098270  1.0  0.1683
  C  C73  1  0.375500  0.021000  0.099310  1.0  -0.1911
  C  C74  1  0.435580  0.093300  0.067270  1.0  0.083
  C  C75  1  0.377100  0.165400  0.034190  1.0  -0.1944
  C  C76  1  0.258500  0.165200  0.033140  1.0  0.166
  C  C77  1  0.256900  0.479200  0.598270  1.0  0.1679
  C  C78  1  0.375500  0.479000  0.599310  1.0  -0.1894
  C  C79  1  0.435580  0.406700  0.567270  1.0  0.0835
  C  C80  1  0.377100  0.334600  0.534190  1.0  -0.193
  C  C81  1  0.258500  0.334800  0.533140  1.0  0.1658
  C  C82  1  0.256900  0.520800  0.401730  1.0  0.1686
  C  C83  1  0.375500  0.521000  0.400690  1.0  -0.191
  C  C84  1  0.435580  0.593300  0.432730  1.0  0.0826
  C  C85  1  0.377100  0.665400  0.465810  1.0  -0.1906
  C  C86  1  0.258500  0.665200  0.466860  1.0  0.1657
  C  C87  1  0.743100  0.020800  0.098270  1.0  0.1689
  C  C88  1  0.624500  0.021000  0.099310  1.0  -0.1914
  C  C89  1  0.564420  0.093300  0.067270  1.0  0.0835
  C  C90  1  0.622900  0.165400  0.034190  1.0  -0.1911
  C  C91  1  0.741500  0.165200  0.033140  1.0  0.1661
  C  C92  1  0.743100  0.979200  0.901730  1.0  0.1676
  C  C93  1  0.624500  0.979000  0.900690  1.0  -0.1901
  C  C94  1  0.564420  0.906700  0.932730  1.0  0.0832
  C  C95  1  0.622900  0.834600  0.965810  1.0  -0.1938
  C  C96  1  0.741500  0.834800  0.966860  1.0  0.1662
  C  C97  1  0.000000  0.661200  0.560200  1.0  0.6569
  C  C98  1  0.000000  0.704000  0.626600  1.0  -0.072
  C  C99  1  0.000000  0.644600  0.678700  1.0  -0.2016
  C  C100  1  0.000000  0.686200  0.739200  1.0  0.0465
  C  C101  1  0.000000  0.802200  0.634800  1.0  -0.2473
  C  C102  1  0.000000  0.842700  0.694900  1.0  0.3715
  C  C103  1  0.000000  0.783800  0.748340  1.0  -0.2902
  C  C104  1  0.000000  0.823900  0.814730  1.0  0.6921
  C  C105  1  0.000000  0.338800  0.439800  1.0  0.6573
  C  C106  1  0.000000  0.296000  0.373400  1.0  -0.0723
  C  C107  1  0.000000  0.355400  0.321300  1.0  -0.2024
  C  C108  1  0.000000  0.313800  0.260800  1.0  0.0452
  C  C109  1  0.000000  0.197800  0.365200  1.0  -0.2499
  C  C110  1  0.000000  0.157300  0.305100  1.0  0.3724
  C  C111  1  0.000000  0.216200  0.251660  1.0  -0.2911
  C  C112  1  0.000000  0.176100  0.185270  1.0  0.6917
  C  C113  1  0.000000  0.838800  0.060200  1.0  0.6569
  C  C114  1  0.000000  0.796000  0.126600  1.0  -0.0724
  C  C115  1  0.000000  0.855400  0.178700  1.0  -0.2022
  C  C116  1  0.000000  0.813800  0.239200  1.0  0.046
  C  C117  1  0.000000  0.697800  0.134800  1.0  -0.2489
  C  C118  1  0.000000  0.657300  0.194900  1.0  0.3712
  C  C119  1  0.000000  0.716200  0.248340  1.0  -0.2897
  C  C120  1  0.000000  0.676100  0.314730  1.0  0.6928
  C  C121  1  0.000000  0.161200  0.939800  1.0  0.6575
  C  C122  1  0.000000  0.204000  0.873400  1.0  -0.0717
  C  C123  1  0.000000  0.144600  0.821300  1.0  -0.2015
  C  C124  1  0.000000  0.186200  0.760800  1.0  0.0462
  C  C125  1  0.000000  0.302200  0.865200  1.0  -0.249
  C  C126  1  0.000000  0.342700  0.805100  1.0  0.3728
  C  C127  1  0.000000  0.283800  0.751660  1.0  -0.2906
  C  C128  1  0.000000  0.323900  0.685270  1.0  0.6912
  N  N129  1  0.801600  0.592900  0.434820  1.0  -0.3393
  N  N130  1  0.801600  0.407100  0.565180  1.0  -0.3392
  N  N131  1  0.198400  0.907100  0.934820  1.0  -0.3391
  N  N132  1  0.198400  0.092900  0.065180  1.0  -0.3386
  N  N133  1  0.198400  0.407100  0.565180  1.0  -0.3392
  N  N134  1  0.198400  0.592900  0.434820  1.0  -0.3386
  N  N135  1  0.801600  0.092900  0.065180  1.0  -0.3392
  N  N136  1  0.801600  0.907100  0.934820  1.0  -0.3393
  N  N137  1  0.000000  0.939500  0.698400  1.0  -0.7036
  N  N138  1  0.000000  0.060500  0.301600  1.0  -0.7026
  N  N139  1  0.000000  0.560500  0.198400  1.0  -0.7031
  N  N140  1  0.000000  0.439500  0.801600  1.0  -0.7037
  O  O141  1  0.000000  0.717100  0.513750  1.0  -0.5968
  O  O142  1  0.000000  0.571100  0.553920  1.0  -0.6496
  O  O143  1  0.000000  0.766800  0.860690  1.0  -0.6426
  O  O144  1  0.000000  0.912600  0.822630  1.0  -0.6115
  O  O145  1  0.000000  0.282900  0.486250  1.0  -0.5994
  O  O146  1  0.000000  0.428900  0.446080  1.0  -0.6475
  O  O147  1  0.000000  0.233200  0.139310  1.0  -0.6436
  O  O148  1  0.000000  0.087400  0.177370  1.0  -0.6108
  O  O149  1  0.000000  0.782900  0.013750  1.0  -0.5975
  O  O150  1  0.000000  0.928900  0.053920  1.0  -0.648
  O  O151  1  0.000000  0.733200  0.360690  1.0  -0.6424
  O  O152  1  0.000000  0.587400  0.322630  1.0  -0.6114
  O  O153  1  0.000000  0.217100  0.986250  1.0  -0.5989
  O  O154  1  0.000000  0.071100  0.946080  1.0  -0.6494
  O  O155  1  0.000000  0.266800  0.639310  1.0  -0.6432
  O  O156  1  0.000000  0.412600  0.677370  1.0  -0.6111
