# generated using pymatgen
data_CdH10C13S(NO)4
_symmetry_space_group_name_H-M   'P 1'
_cell_length_a   9.50950000
_cell_length_b   19.84000000
_cell_length_c   21.03500000
_cell_angle_alpha   90.00000000
_cell_angle_beta   90.00000000
_cell_angle_gamma   90.00000000
_symmetry_Int_Tables_number   1
_chemical_formula_structural   CdH10C13S(NO)4
_chemical_formula_sum   'Cd8 H80 C104 S8 N32 O32'
_cell_volume   3968.64147680
_cell_formula_units_Z   8
loop_
 _symmetry_equiv_pos_site_id
 _symmetry_equiv_pos_as_xyz
  1  'x, y, z'
loop_
 _atom_site_type_symbol
 _atom_site_label
 _atom_site_symmetry_multiplicity
 _atom_site_fract_x
 _atom_site_fract_y
 _atom_site_fract_z
 _atom_site_occupancy
 _atom_site_charge
  Cd  Cd1  1  0.507540  0.553460  0.426140  1.0  1.0365
  Cd  Cd2  1  0.492460  0.053460  0.073860  1.0  1.0371
  Cd  Cd3  1  0.007540  0.553460  0.073860  1.0  1.0365
  Cd  Cd4  1  0.992460  0.053460  0.426140  1.0  1.0371
  Cd  Cd5  1  0.992460  0.446540  0.926140  1.0  1.0373
  Cd  Cd6  1  0.007540  0.946540  0.573860  1.0  1.0367
  Cd  Cd7  1  0.492460  0.446540  0.573860  1.0  1.0373
  Cd  Cd8  1  0.507540  0.946540  0.926140  1.0  1.0367
  H  H9  1  0.475300  0.309200  0.465800  1.0  0.1091
  H  H10  1  0.576100  0.196200  0.463400  1.0  0.1124
  H  H11  1  0.372400  0.449500  0.314100  1.0  0.0986
  H  H12  1  0.327000  0.473200  0.202400  1.0  0.1252
  H  H13  1  0.555900  0.620200  0.274700  1.0  0.102
  H  H14  1  0.462400  0.640900  0.162400  1.0  0.1056
  H  H15  1  0.358100  0.587100  0.134600  1.0  0.1147
  H  H16  1  0.476600  0.479900  0.076100  1.0  0.1282
  H  H17  1  0.708100  0.465700  0.028300  1.0  0.1072
  H  H18  1  0.720200  0.630700  0.129600  1.0  0.0988
  H  H19  1  0.524700  0.809200  0.034200  1.0  0.109
  H  H20  1  0.423900  0.696200  0.036600  1.0  0.1119
  H  H21  1  0.627600  0.949500  0.185900  1.0  0.0981
  H  H22  1  0.673000  0.973200  0.297600  1.0  0.1254
  H  H23  1  0.444100  0.120200  0.225300  1.0  0.1021
  H  H24  1  0.537600  0.140900  0.337600  1.0  0.1064
  H  H25  1  0.641900  0.087100  0.365400  1.0  0.1165
  H  H26  1  0.523400  0.979900  0.423900  1.0  0.1282
  H  H27  1  0.291900  0.965700  0.471700  1.0  0.1071
  H  H28  1  0.279800  0.130700  0.370400  1.0  0.0988
  H  H29  1  0.975300  0.309200  0.034200  1.0  0.1089
  H  H30  1  0.076100  0.196200  0.036600  1.0  0.1118
  H  H31  1  0.872400  0.449500  0.185900  1.0  0.098
  H  H32  1  0.827000  0.473200  0.297600  1.0  0.1251
  H  H33  1  0.055900  0.620200  0.225300  1.0  0.1021
  H  H34  1  0.962400  0.640900  0.337600  1.0  0.1061
  H  H35  1  0.858100  0.587100  0.365400  1.0  0.1151
  H  H36  1  0.976600  0.479900  0.423900  1.0  0.1282
  H  H37  1  0.208100  0.465700  0.471700  1.0  0.1073
  H  H38  1  0.220200  0.630700  0.370400  1.0  0.0987
  H  H39  1  0.024700  0.809200  0.465800  1.0  0.109
  H  H40  1  0.923900  0.696200  0.463400  1.0  0.1123
  H  H41  1  0.127600  0.949500  0.314100  1.0  0.0982
  H  H42  1  0.173000  0.973200  0.202400  1.0  0.1255
  H  H43  1  0.944100  0.120200  0.274700  1.0  0.102
  H  H44  1  0.037600  0.140900  0.162400  1.0  0.1058
  H  H45  1  0.141900  0.087100  0.134600  1.0  0.1159
  H  H46  1  0.023400  0.979900  0.076100  1.0  0.1282
  H  H47  1  0.791900  0.965700  0.028300  1.0  0.107
  H  H48  1  0.779800  0.130700  0.129600  1.0  0.0988
  H  H49  1  0.024700  0.690800  0.965800  1.0  0.109
  H  H50  1  0.923900  0.803800  0.963400  1.0  0.1117
  H  H51  1  0.127600  0.550500  0.814100  1.0  0.0973
  H  H52  1  0.173000  0.526800  0.702400  1.0  0.1254
  H  H53  1  0.944100  0.379800  0.774700  1.0  0.1018
  H  H54  1  0.037600  0.359100  0.662400  1.0  0.1055
  H  H55  1  0.141900  0.412900  0.634600  1.0  0.1159
  H  H56  1  0.023400  0.520100  0.576100  1.0  0.128
  H  H57  1  0.791900  0.534300  0.528300  1.0  0.1076
  H  H58  1  0.779800  0.369300  0.629600  1.0  0.0999
  H  H59  1  0.975300  0.190800  0.534200  1.0  0.1088
  H  H60  1  0.076100  0.303800  0.536600  1.0  0.1115
  H  H61  1  0.872400  0.050500  0.685900  1.0  0.0979
  H  H62  1  0.827000  0.026800  0.797600  1.0  0.1251
  H  H63  1  0.055900  0.879800  0.725300  1.0  0.1021
  H  H64  1  0.962400  0.859100  0.837600  1.0  0.1056
  H  H65  1  0.858100  0.912900  0.865400  1.0  0.1153
  H  H66  1  0.976600  0.020100  0.923900  1.0  0.1284
  H  H67  1  0.208100  0.034300  0.971700  1.0  0.1076
  H  H68  1  0.220200  0.869300  0.870400  1.0  0.0996
  H  H69  1  0.524700  0.690800  0.534200  1.0  0.109
  H  H70  1  0.423900  0.803800  0.536600  1.0  0.1116
  H  H71  1  0.627600  0.550500  0.685900  1.0  0.0971
  H  H72  1  0.673000  0.526800  0.797600  1.0  0.1253
  H  H73  1  0.444100  0.379800  0.725300  1.0  0.1018
  H  H74  1  0.537600  0.359100  0.837600  1.0  0.1053
  H  H75  1  0.641900  0.412900  0.865400  1.0  0.117
  H  H76  1  0.523400  0.520100  0.923900  1.0  0.1281
  H  H77  1  0.291900  0.534300  0.971700  1.0  0.1075
  H  H78  1  0.279800  0.369300  0.870400  1.0  0.0995
  H  H79  1  0.475300  0.190800  0.965800  1.0  0.1091
  H  H80  1  0.576100  0.303800  0.963400  1.0  0.1119
  H  H81  1  0.372400  0.050500  0.814100  1.0  0.0976
  H  H82  1  0.327000  0.026800  0.702400  1.0  0.1254
  H  H83  1  0.555900  0.879800  0.774700  1.0  0.102
  H  H84  1  0.462400  0.859100  0.662400  1.0  0.1055
  H  H85  1  0.358100  0.912900  0.634600  1.0  0.1146
  H  H86  1  0.476600  0.020100  0.576100  1.0  0.1285
  H  H87  1  0.708100  0.034300  0.528300  1.0  0.1076
  H  H88  1  0.720200  0.869300  0.629600  1.0  0.0999
  C  C89  1  0.658200  0.348190  0.433110  1.0  -0.208
  C  C90  1  0.566700  0.300100  0.452730  1.0  -0.0622
  C  C91  1  0.624900  0.234700  0.451200  1.0  -0.06
  C  C92  1  0.758800  0.233960  0.430120  1.0  -0.2048
  C  C93  1  0.853800  0.174450  0.422510  1.0  0.6691
  C  C94  1  0.635400  0.422220  0.429090  1.0  0.6694
  C  C95  1  0.403900  0.487200  0.292100  1.0  0.0049
  C  C96  1  0.378400  0.499800  0.230500  1.0  -0.1689
  C  C97  1  0.504500  0.580500  0.271070  1.0  0.1449
  C  C98  1  0.447600  0.593000  0.156040  1.0  0.0149
  C  C99  1  0.553600  0.508300  0.080930  1.0  -0.1671
  C  C100  1  0.681700  0.500900  0.054950  1.0  0.0395
  C  C101  1  0.689400  0.591300  0.110220  1.0  0.141
  C  C102  1  0.341800  0.848190  0.066890  1.0  -0.2122
  C  C103  1  0.433300  0.800100  0.047270  1.0  -0.0622
  C  C104  1  0.375100  0.734700  0.048800  1.0  -0.0598
  C  C105  1  0.241200  0.733960  0.069880  1.0  -0.206
  C  C106  1  0.146200  0.674450  0.077490  1.0  0.6698
  C  C107  1  0.364600  0.922220  0.070910  1.0  0.669
  C  C108  1  0.596100  0.987200  0.207900  1.0  0.0041
  C  C109  1  0.621600  0.999800  0.269500  1.0  -0.1677
  C  C110  1  0.495500  0.080500  0.228930  1.0  0.1446
  C  C111  1  0.552400  0.093000  0.343960  1.0  0.0149
  C  C112  1  0.446400  0.008300  0.419070  1.0  -0.1665
  C  C113  1  0.318300  0.000900  0.445050  1.0  0.0393
  C  C114  1  0.310600  0.091300  0.389780  1.0  0.14
  C  C115  1  0.158200  0.348190  0.066890  1.0  -0.2088
  C  C116  1  0.066700  0.300100  0.047270  1.0  -0.0619
  C  C117  1  0.124900  0.234700  0.048800  1.0  -0.0604
  C  C118  1  0.258800  0.233960  0.069880  1.0  -0.205
  C  C119  1  0.353800  0.174450  0.077490  1.0  0.6687
  C  C120  1  0.135400  0.422220  0.070910  1.0  0.669
  C  C121  1  0.903900  0.487200  0.207900  1.0  0.0039
  C  C122  1  0.878400  0.499800  0.269500  1.0  -0.1682
  C  C123  1  0.004500  0.580500  0.228930  1.0  0.1457
  C  C124  1  0.947600  0.593000  0.343960  1.0  0.0145
  C  C125  1  0.053600  0.508300  0.419070  1.0  -0.1671
  C  C126  1  0.181700  0.500900  0.445050  1.0  0.0401
  C  C127  1  0.189400  0.591300  0.389780  1.0  0.1408
  C  C128  1  0.841800  0.848190  0.433110  1.0  -0.2116
  C  C129  1  0.933300  0.800100  0.452730  1.0  -0.0621
  C  C130  1  0.875100  0.734700  0.451200  1.0  -0.0595
  C  C131  1  0.741200  0.733960  0.430120  1.0  -0.2058
  C  C132  1  0.646200  0.674450  0.422510  1.0  0.6698
  C  C133  1  0.864600  0.922220  0.429090  1.0  0.6694
  C  C134  1  0.096100  0.987200  0.292100  1.0  0.0052
  C  C135  1  0.121600  0.999800  0.230500  1.0  -0.1684
  C  C136  1  0.995500  0.080500  0.271070  1.0  0.1438
  C  C137  1  0.052400  0.093000  0.156040  1.0  0.0153
  C  C138  1  0.946400  0.008300  0.080930  1.0  -0.1667
  C  C139  1  0.818300  0.000900  0.054950  1.0  0.0389
  C  C140  1  0.810600  0.091300  0.110220  1.0  0.14
  C  C141  1  0.841800  0.651810  0.933110  1.0  -0.2126
  C  C142  1  0.933300  0.699900  0.952730  1.0  -0.0617
  C  C143  1  0.875100  0.765300  0.951200  1.0  -0.0591
  C  C144  1  0.741200  0.766040  0.930120  1.0  -0.2066
  C  C145  1  0.646200  0.825550  0.922510  1.0  0.6704
  C  C146  1  0.864600  0.577780  0.929090  1.0  0.6702
  C  C147  1  0.096100  0.512800  0.792100  1.0  0.0059
  C  C148  1  0.121600  0.500200  0.730500  1.0  -0.1673
  C  C149  1  0.995500  0.419500  0.771070  1.0  0.1436
  C  C150  1  0.052400  0.407000  0.656040  1.0  0.0152
  C  C151  1  0.946400  0.491700  0.580930  1.0  -0.1664
  C  C152  1  0.818300  0.499100  0.554950  1.0  0.0393
  C  C153  1  0.810600  0.408700  0.610220  1.0  0.1399
  C  C154  1  0.158200  0.151810  0.566890  1.0  -0.2088
  C  C155  1  0.066700  0.199900  0.547270  1.0  -0.0612
  C  C156  1  0.124900  0.265300  0.548800  1.0  -0.06
  C  C157  1  0.258800  0.266040  0.569880  1.0  -0.2049
  C  C158  1  0.353800  0.325550  0.577490  1.0  0.6699
  C  C159  1  0.135400  0.077780  0.570910  1.0  0.6697
  C  C160  1  0.903900  0.012800  0.707900  1.0  0.004
  C  C161  1  0.878400  0.000200  0.769500  1.0  -0.1685
  C  C162  1  0.004500  0.919500  0.728930  1.0  0.1443
  C  C163  1  0.947600  0.907000  0.843960  1.0  0.0146
  C  C164  1  0.053600  0.991700  0.919070  1.0  -0.1672
  C  C165  1  0.181700  0.999100  0.945050  1.0  0.0392
  C  C166  1  0.189400  0.908700  0.889780  1.0  0.1404
  C  C167  1  0.341800  0.651810  0.566890  1.0  -0.2119
  C  C168  1  0.433300  0.699900  0.547270  1.0  -0.0617
  C  C169  1  0.375100  0.765300  0.548800  1.0  -0.0595
  C  C170  1  0.241200  0.766040  0.569880  1.0  -0.2065
  C  C171  1  0.146200  0.825550  0.577490  1.0  0.6708
  C  C172  1  0.364600  0.577780  0.570910  1.0  0.6697
  C  C173  1  0.596100  0.512800  0.707900  1.0  0.0053
  C  C174  1  0.621600  0.500200  0.769500  1.0  -0.1672
  C  C175  1  0.495500  0.419500  0.728930  1.0  0.1441
  C  C176  1  0.552400  0.407000  0.843960  1.0  0.0148
  C  C177  1  0.446400  0.491700  0.919070  1.0  -0.1662
  C  C178  1  0.318300  0.499100  0.945050  1.0  0.0381
  C  C179  1  0.310600  0.408700  0.889780  1.0  0.1398
  C  C180  1  0.658200  0.151810  0.933110  1.0  -0.2091
  C  C181  1  0.566700  0.199900  0.952730  1.0  -0.0615
  C  C182  1  0.624900  0.265300  0.951200  1.0  -0.0596
  C  C183  1  0.758800  0.266040  0.930120  1.0  -0.2048
  C  C184  1  0.853800  0.325550  0.922510  1.0  0.67
  C  C185  1  0.635400  0.077780  0.929090  1.0  0.6702
  C  C186  1  0.403900  0.012800  0.792100  1.0  0.0044
  C  C187  1  0.378400  0.000200  0.730500  1.0  -0.1683
  C  C188  1  0.504500  0.919500  0.771070  1.0  0.1438
  C  C189  1  0.447600  0.907000  0.656040  1.0  0.0149
  C  C190  1  0.553600  0.991700  0.580930  1.0  -0.1672
  C  C191  1  0.681700  0.999100  0.554950  1.0  0.0402
  C  C192  1  0.689400  0.908700  0.610220  1.0  0.1407
  S  S193  1  0.817670  0.313840  0.412130  1.0  0.1455
  S  S194  1  0.182330  0.813840  0.087870  1.0  0.1484
  S  S195  1  0.317670  0.313840  0.087870  1.0  0.1463
  S  S196  1  0.682330  0.813840  0.412130  1.0  0.1488
  S  S197  1  0.682330  0.686160  0.912130  1.0  0.1484
  S  S198  1  0.317670  0.186160  0.587870  1.0  0.1462
  S  S199  1  0.182330  0.686160  0.587870  1.0  0.1476
  S  S200  1  0.817670  0.186160  0.912130  1.0  0.1459
  N  N201  1  0.483000  0.538030  0.317890  1.0  -0.3687
  N  N202  1  0.443100  0.559400  0.217550  1.0  0.051
  N  N203  1  0.560000  0.566160  0.116030  1.0  0.0586
  N  N204  1  0.768000  0.552770  0.073280  1.0  -0.3884
  N  N205  1  0.517000  0.038030  0.182110  1.0  -0.3692
  N  N206  1  0.556900  0.059400  0.282450  1.0  0.0511
  N  N207  1  0.440000  0.066160  0.383970  1.0  0.0579
  N  N208  1  0.232000  0.052770  0.426720  1.0  -0.3881
  N  N209  1  0.983000  0.538030  0.182110  1.0  -0.3693
  N  N210  1  0.943100  0.559400  0.282450  1.0  0.0513
  N  N211  1  0.060000  0.566160  0.383970  1.0  0.0582
  N  N212  1  0.268000  0.552770  0.426720  1.0  -0.3884
  N  N213  1  0.017000  0.038030  0.317890  1.0  -0.3692
  N  N214  1  0.056900  0.059400  0.217550  1.0  0.0508
  N  N215  1  0.940000  0.066160  0.116030  1.0  0.0582
  N  N216  1  0.732000  0.052770  0.073280  1.0  -0.3875
  N  N217  1  0.017000  0.461970  0.817890  1.0  -0.3697
  N  N218  1  0.056900  0.440600  0.717550  1.0  0.0504
  N  N219  1  0.940000  0.433840  0.616030  1.0  0.0582
  N  N220  1  0.732000  0.447230  0.573280  1.0  -0.3885
  N  N221  1  0.983000  0.961970  0.682110  1.0  -0.3695
  N  N222  1  0.943100  0.940600  0.782450  1.0  0.0509
  N  N223  1  0.060000  0.933840  0.883970  1.0  0.058
  N  N224  1  0.268000  0.947230  0.926720  1.0  -0.3882
  N  N225  1  0.517000  0.461970  0.682110  1.0  -0.3692
  N  N226  1  0.556900  0.440600  0.782450  1.0  0.0508
  N  N227  1  0.440000  0.433840  0.883970  1.0  0.0579
  N  N228  1  0.232000  0.447230  0.926720  1.0  -0.3884
  N  N229  1  0.483000  0.961970  0.817890  1.0  -0.3693
  N  N230  1  0.443100  0.940600  0.717550  1.0  0.0506
  N  N231  1  0.560000  0.933840  0.616030  1.0  0.0584
  N  N232  1  0.768000  0.947230  0.573280  1.0  -0.3888
  O  O233  1  0.971100  0.181150  0.398120  1.0  -0.6084
  O  O234  1  0.806000  0.118910  0.442720  1.0  -0.6023
  O  O235  1  0.721500  0.458270  0.402050  1.0  -0.5802
  O  O236  1  0.521000  0.443530  0.454640  1.0  -0.6611
  O  O237  1  0.028900  0.681150  0.101880  1.0  -0.6068
  O  O238  1  0.194000  0.618910  0.057280  1.0  -0.6012
  O  O239  1  0.278500  0.958270  0.097950  1.0  -0.5782
  O  O240  1  0.479000  0.943530  0.045360  1.0  -0.6598
  O  O241  1  0.471100  0.181150  0.101880  1.0  -0.6085
  O  O242  1  0.306000  0.118910  0.057280  1.0  -0.6016
  O  O243  1  0.221500  0.458270  0.097950  1.0  -0.5781
  O  O244  1  0.021000  0.443530  0.045360  1.0  -0.6612
  O  O245  1  0.528900  0.681150  0.398120  1.0  -0.6064
  O  O246  1  0.694000  0.618910  0.442720  1.0  -0.6018
  O  O247  1  0.778500  0.958270  0.402050  1.0  -0.5803
  O  O248  1  0.979000  0.943530  0.454640  1.0  -0.6596
  O  O249  1  0.528900  0.818850  0.898120  1.0  -0.6064
  O  O250  1  0.694000  0.881090  0.942720  1.0  -0.6016
  O  O251  1  0.778500  0.541730  0.902050  1.0  -0.5791
  O  O252  1  0.979000  0.556470  0.954640  1.0  -0.6591
  O  O253  1  0.471100  0.318850  0.601880  1.0  -0.6074
  O  O254  1  0.306000  0.381090  0.557280  1.0  -0.6024
  O  O255  1  0.221500  0.041730  0.597950  1.0  -0.5783
  O  O256  1  0.021000  0.056470  0.545360  1.0  -0.6613
  O  O257  1  0.028900  0.818850  0.601880  1.0  -0.6067
  O  O258  1  0.194000  0.881090  0.557280  1.0  -0.6016
  O  O259  1  0.278500  0.541730  0.597950  1.0  -0.5783
  O  O260  1  0.479000  0.556470  0.545360  1.0  -0.6592
  O  O261  1  0.971100  0.318850  0.898120  1.0  -0.6074
  O  O262  1  0.806000  0.381090  0.942720  1.0  -0.6022
  O  O263  1  0.721500  0.041730  0.902050  1.0  -0.5792
  O  O264  1  0.521000  0.056470  0.954640  1.0  -0.6611
