# generated using pymatgen
data_Cd5H48C84(NO6)4
_symmetry_space_group_name_H-M   'P 1'
_cell_length_a   14.58300000
_cell_length_b   23.24100000
_cell_length_c   15.63380000
_cell_angle_alpha   90.00000000
_cell_angle_beta   106.99000000
_cell_angle_gamma   90.00000000
_symmetry_Int_Tables_number   1
_chemical_formula_structural   Cd5H48C84(NO6)4
_chemical_formula_sum   'Cd10 H96 C168 N8 O48'
_cell_volume   5067.40622618
_cell_formula_units_Z   2
loop_
 _symmetry_equiv_pos_site_id
 _symmetry_equiv_pos_as_xyz
  1  'x, y, z'
loop_
 _atom_site_type_symbol
 _atom_site_label
 _atom_site_symmetry_multiplicity
 _atom_site_fract_x
 _atom_site_fract_y
 _atom_site_fract_z
 _atom_site_occupancy
 _atom_site_charge
  Cd  Cd1  1  0.236370  0.437630  0.583750  1.0  1.0502
  Cd  Cd2  1  0.258060  0.301060  0.696400  1.0  1.0718
  Cd  Cd3  1  0.763630  0.937630  0.916250  1.0  1.0507
  Cd  Cd4  1  0.741940  0.801060  0.803600  1.0  1.0678
  Cd  Cd5  1  0.763630  0.562370  0.416250  1.0  1.0507
  Cd  Cd6  1  0.741940  0.698940  0.303600  1.0  1.0676
  Cd  Cd7  1  0.236370  0.062370  0.083750  1.0  1.0503
  Cd  Cd8  1  0.258060  0.198940  0.196400  1.0  1.068
  Cd  Cd9  1  0.000000  0.500000  0.500000  1.0  1.145
  Cd  Cd10  1  0.000000  0.000000  0.000000  1.0  1.145
  H  H11  1  0.290000  0.502000  0.166500  1.0  0.145
  H  H12  1  0.290200  0.471300  0.307300  1.0  0.1026
  H  H13  1  0.035900  0.542500  0.273800  1.0  0.1171
  H  H14  1  0.029200  0.566400  0.130600  1.0  0.0931
  H  H15  1  0.235900  0.563200  0.916900  1.0  0.1315
  H  H16  1  0.281000  0.496900  0.830600  1.0  0.1175
  H  H17  1  0.194500  0.371900  0.958600  1.0  0.0975
  H  H18  1  0.140100  0.437600  0.043100  1.0  0.1351
  H  H19  1  0.919900  0.621100  0.818700  1.0  0.1166
  H  H20  1  0.032400  0.552900  0.883100  1.0  0.1107
  H  H21  1  0.130900  0.653700  0.094200  1.0  0.1156
  H  H22  1  0.019000  0.720400  0.034300  1.0  0.1275
  H  H23  1  0.764000  0.309100  0.536700  1.0  0.1455
  H  H24  1  0.883900  0.355200  0.494200  1.0  0.1052
  H  H25  1  0.062100  0.330900  0.737800  1.0  0.1082
  H  H26  1  0.943800  0.285500  0.781200  1.0  0.1389
  H  H27  1  0.890700  0.183400  0.683400  1.0  0.1104
  H  H28  1  0.914300  0.096400  0.757500  1.0  0.1125
  H  H29  1  0.700400  0.129500  0.858900  1.0  0.1216
  H  H30  1  0.683500  0.220100  0.799400  1.0  0.1349
  H  H31  1  0.597100  0.220300  0.619900  1.0  0.1323
  H  H32  1  0.447500  0.263800  0.593800  1.0  0.1222
  H  H33  1  0.575700  0.414600  0.671100  1.0  0.1237
  H  H34  1  0.723200  0.371400  0.697200  1.0  0.1098
  H  H35  1  0.710000  0.002000  0.333500  1.0  0.1457
  H  H36  1  0.709800  0.971300  0.192700  1.0  0.1024
  H  H37  1  0.964100  0.042500  0.226200  1.0  0.1165
  H  H38  1  0.970800  0.066400  0.369400  1.0  0.0932
  H  H39  1  0.764100  0.063200  0.583100  1.0  0.1315
  H  H40  1  0.719000  0.996900  0.669400  1.0  0.1206
  H  H41  1  0.805500  0.871900  0.541400  1.0  0.0975
  H  H42  1  0.859900  0.937600  0.456900  1.0  0.1356
  H  H43  1  0.080100  0.121100  0.681300  1.0  0.1161
  H  H44  1  0.967600  0.052900  0.616900  1.0  0.1109
  H  H45  1  0.869100  0.153700  0.405800  1.0  0.1153
  H  H46  1  0.981000  0.220400  0.465700  1.0  0.1276
  H  H47  1  0.236000  0.809100  0.963300  1.0  0.1459
  H  H48  1  0.116100  0.855200  0.005800  1.0  0.1052
  H  H49  1  0.937900  0.830900  0.762200  1.0  0.1074
  H  H50  1  0.056200  0.785500  0.718800  1.0  0.1398
  H  H51  1  0.109300  0.683400  0.816600  1.0  0.11
  H  H52  1  0.085700  0.596400  0.742500  1.0  0.112
  H  H53  1  0.299600  0.629500  0.641100  1.0  0.1216
  H  H54  1  0.316500  0.720100  0.700600  1.0  0.1352
  H  H55  1  0.402900  0.720300  0.880100  1.0  0.1335
  H  H56  1  0.552500  0.763800  0.906200  1.0  0.1225
  H  H57  1  0.424300  0.914600  0.828900  1.0  0.124
  H  H58  1  0.276800  0.871400  0.802800  1.0  0.1113
  H  H59  1  0.710000  0.498000  0.833500  1.0  0.1485
  H  H60  1  0.709800  0.528700  0.692700  1.0  0.1029
  H  H61  1  0.964100  0.457500  0.726200  1.0  0.1165
  H  H62  1  0.970800  0.433600  0.869400  1.0  0.0931
  H  H63  1  0.764100  0.436800  0.083100  1.0  0.1315
  H  H64  1  0.719000  0.503100  0.169400  1.0  0.1192
  H  H65  1  0.805500  0.628100  0.041400  1.0  0.0976
  H  H66  1  0.859900  0.562400  0.956900  1.0  0.1364
  H  H67  1  0.080100  0.378900  0.181300  1.0  0.1164
  H  H68  1  0.967600  0.447100  0.116900  1.0  0.1105
  H  H69  1  0.869100  0.346300  0.905800  1.0  0.1149
  H  H70  1  0.981000  0.279600  0.965700  1.0  0.1274
  H  H71  1  0.236000  0.690900  0.463300  1.0  0.1457
  H  H72  1  0.116100  0.644800  0.505800  1.0  0.1052
  H  H73  1  0.937900  0.669100  0.262200  1.0  0.1074
  H  H74  1  0.056200  0.714500  0.218800  1.0  0.1399
  H  H75  1  0.109300  0.816600  0.316600  1.0  0.1101
  H  H76  1  0.085700  0.903600  0.242500  1.0  0.1124
  H  H77  1  0.299600  0.870500  0.141100  1.0  0.1214
  H  H78  1  0.316500  0.779900  0.200600  1.0  0.1364
  H  H79  1  0.402900  0.779700  0.380100  1.0  0.1336
  H  H80  1  0.552500  0.736200  0.406200  1.0  0.1228
  H  H81  1  0.424300  0.585400  0.328900  1.0  0.1236
  H  H82  1  0.276800  0.628600  0.302800  1.0  0.1116
  H  H83  1  0.290000  0.998000  0.666500  1.0  0.1482
  H  H84  1  0.290200  0.028700  0.807300  1.0  0.1027
  H  H85  1  0.035900  0.957500  0.773800  1.0  0.117
  H  H86  1  0.029200  0.933600  0.630600  1.0  0.093
  H  H87  1  0.235900  0.936800  0.416900  1.0  0.1323
  H  H88  1  0.281000  0.003100  0.330600  1.0  0.1159
  H  H89  1  0.194500  0.128100  0.458600  1.0  0.0972
  H  H90  1  0.140100  0.062400  0.543100  1.0  0.1355
  H  H91  1  0.919900  0.878900  0.318700  1.0  0.1166
  H  H92  1  0.032400  0.947100  0.383100  1.0  0.1109
  H  H93  1  0.130900  0.846300  0.594200  1.0  0.1158
  H  H94  1  0.019000  0.779600  0.534300  1.0  0.1278
  H  H95  1  0.764000  0.190900  0.036700  1.0  0.1455
  H  H96  1  0.883900  0.144800  0.994200  1.0  0.1053
  H  H97  1  0.062100  0.169100  0.237800  1.0  0.1081
  H  H98  1  0.943800  0.214500  0.281200  1.0  0.1392
  H  H99  1  0.890700  0.316600  0.183400  1.0  0.1105
  H  H100  1  0.914300  0.403600  0.257500  1.0  0.1122
  H  H101  1  0.700400  0.370500  0.358900  1.0  0.1203
  H  H102  1  0.683500  0.279900  0.299400  1.0  0.1368
  H  H103  1  0.597100  0.279700  0.119900  1.0  0.1326
  H  H104  1  0.447500  0.236200  0.093800  1.0  0.1229
  H  H105  1  0.575700  0.085400  0.171100  1.0  0.1239
  H  H106  1  0.723200  0.128600  0.197200  1.0  0.1103
  C  C107  1  0.156200  0.536000  0.132200  1.0  0.1851
  C  C108  1  0.237100  0.508900  0.186900  1.0  -0.2195
  C  C109  1  0.238000  0.492100  0.272700  1.0  -0.0253
  C  C110  1  0.166500  0.504800  0.307100  1.0  -0.0599
  C  C111  1  0.087000  0.533300  0.252100  1.0  -0.0611
  C  C112  1  0.083400  0.547800  0.166300  1.0  -0.1484
  C  C113  1  0.168500  0.487900  0.399800  1.0  0.7139
  C  C114  1  0.185700  0.507600  0.991200  1.0  0.1643
  C  C115  1  0.226800  0.524300  0.925700  1.0  -0.1864
  C  C116  1  0.253900  0.484700  0.874400  1.0  -0.0298
  C  C117  1  0.241700  0.426300  0.886000  1.0  -0.13
  C  C118  1  0.201800  0.410900  0.949200  1.0  -0.0269
  C  C119  1  0.170500  0.450000  0.001800  1.0  -0.2458
  C  C120  1  0.266900  0.382700  0.825000  1.0  0.6773
  C  C121  1  0.875100  0.720800  0.880800  1.0  0.6933
  C  C122  1  0.953000  0.677400  0.920200  1.0  -0.0348
  C  C123  1  0.960900  0.627300  0.875800  1.0  -0.0881
  C  C124  1  0.028300  0.586400  0.914400  1.0  -0.1219
  C  C125  1  0.089400  0.594400  0.998500  1.0  0.1868
  C  C126  1  0.085900  0.646200  0.039500  1.0  -0.0988
  C  C127  1  0.020200  0.686200  0.003600  1.0  -0.1035
  C  C128  1  0.842900  0.293400  0.663400  1.0  0.1738
  C  C129  1  0.824400  0.313700  0.577400  1.0  -0.1798
  C  C130  1  0.896400  0.341000  0.552100  1.0  0.0157
  C  C131  1  0.986800  0.347500  0.611700  1.0  -0.1583
  C  C132  1  0.001900  0.326600  0.696700  1.0  -0.0483
  C  C133  1  0.931400  0.299500  0.723200  1.0  -0.1962
  C  C134  1  0.060900  0.378610  0.582700  1.0  0.7112
  C  C135  1  0.782700  0.211600  0.730800  1.0  0.1922
  C  C136  1  0.852700  0.173300  0.719600  1.0  -0.1262
  C  C137  1  0.865200  0.120500  0.762100  1.0  -0.0485
  C  C138  1  0.806500  0.103700  0.810700  1.0  -0.0646
  C  C139  1  0.739000  0.141100  0.824100  1.0  -0.0412
  C  C140  1  0.727500  0.194700  0.787300  1.0  -0.1488
  C  C141  1  0.816800  0.044400  0.851100  1.0  0.6896
  C  C142  1  0.676300  0.291500  0.666900  1.0  0.1991
  C  C143  1  0.592900  0.259300  0.631800  1.0  -0.1215
  C  C144  1  0.503100  0.285600  0.614400  1.0  -0.0345
  C  C145  1  0.497100  0.343100  0.627900  1.0  -0.096
  C  C146  1  0.579700  0.375400  0.660700  1.0  -0.0296
  C  C147  1  0.668000  0.349200  0.677800  1.0  -0.1818
  C  C148  1  0.401400  0.370600  0.610300  1.0  0.7338
  C  C149  1  0.843800  0.036000  0.367800  1.0  0.1845
  C  C150  1  0.762900  0.008900  0.313100  1.0  -0.2192
  C  C151  1  0.762000  0.992100  0.227300  1.0  -0.0281
  C  C152  1  0.833500  0.004800  0.192900  1.0  -0.0599
  C  C153  1  0.913000  0.033300  0.247900  1.0  -0.062
  C  C154  1  0.916600  0.047800  0.333700  1.0  -0.1491
  C  C155  1  0.831500  0.987900  0.100200  1.0  0.7137
  C  C156  1  0.814300  0.007600  0.508800  1.0  0.1651
  C  C157  1  0.773200  0.024300  0.574300  1.0  -0.1902
  C  C158  1  0.746100  0.984700  0.625600  1.0  -0.0378
  C  C159  1  0.758300  0.926300  0.614000  1.0  -0.1311
  C  C160  1  0.798200  0.910900  0.550800  1.0  -0.0208
  C  C161  1  0.829500  0.950000  0.498200  1.0  -0.2436
  C  C162  1  0.733100  0.882700  0.675000  1.0  0.6771
  C  C163  1  0.124900  0.220800  0.619200  1.0  0.6925
  C  C164  1  0.047000  0.177400  0.579800  1.0  -0.0353
  C  C165  1  0.039100  0.127300  0.624200  1.0  -0.0891
  C  C166  1  0.971700  0.086400  0.585600  1.0  -0.1227
  C  C167  1  0.910600  0.094400  0.501500  1.0  0.1866
  C  C168  1  0.914100  0.146200  0.460500  1.0  -0.0983
  C  C169  1  0.979800  0.186200  0.496400  1.0  -0.0929
  C  C170  1  0.157100  0.793400  0.836600  1.0  0.1751
  C  C171  1  0.175600  0.813700  0.922600  1.0  -0.1785
  C  C172  1  0.103600  0.841000  0.947900  1.0  0.0168
  C  C173  1  0.013200  0.847500  0.888300  1.0  -0.1591
  C  C174  1  0.998100  0.826600  0.803300  1.0  -0.054
  C  C175  1  0.068600  0.799500  0.776800  1.0  -0.1977
  C  C176  1  0.939100  0.878610  0.917300  1.0  0.7117
  C  C177  1  0.217300  0.711600  0.769200  1.0  0.1929
  C  C178  1  0.147300  0.673300  0.780400  1.0  -0.1282
  C  C179  1  0.134800  0.620500  0.737900  1.0  -0.0477
  C  C180  1  0.193500  0.603700  0.689300  1.0  -0.0643
  C  C181  1  0.261000  0.641100  0.675900  1.0  -0.0412
  C  C182  1  0.272500  0.694700  0.712700  1.0  -0.1473
  C  C183  1  0.183200  0.544400  0.648900  1.0  0.6901
  C  C184  1  0.323700  0.791500  0.833100  1.0  0.201
  C  C185  1  0.407100  0.759300  0.868200  1.0  -0.1194
  C  C186  1  0.496900  0.785600  0.885600  1.0  -0.033
  C  C187  1  0.502900  0.843100  0.872100  1.0  -0.095
  C  C188  1  0.420300  0.875400  0.839300  1.0  -0.0311
  C  C189  1  0.332000  0.849200  0.822200  1.0  -0.1786
  C  C190  1  0.598600  0.870600  0.889700  1.0  0.7302
  C  C191  1  0.843800  0.464000  0.867800  1.0  0.1848
  C  C192  1  0.762900  0.491100  0.813100  1.0  -0.2196
  C  C193  1  0.762000  0.507900  0.727300  1.0  -0.0287
  C  C194  1  0.833500  0.495200  0.692900  1.0  -0.0598
  C  C195  1  0.913000  0.466700  0.747900  1.0  -0.0613
  C  C196  1  0.916600  0.452200  0.833700  1.0  -0.1516
  C  C197  1  0.831500  0.512100  0.600200  1.0  0.7154
  C  C198  1  0.814300  0.492400  0.008800  1.0  0.1656
  C  C199  1  0.773200  0.475700  0.074300  1.0  -0.1872
  C  C200  1  0.746100  0.515300  0.125600  1.0  -0.0405
  C  C201  1  0.758300  0.573700  0.114000  1.0  -0.1306
  C  C202  1  0.798200  0.589100  0.050800  1.0  -0.0201
  C  C203  1  0.829500  0.550000  0.998200  1.0  -0.245
  C  C204  1  0.733100  0.617300  0.175000  1.0  0.6769
  C  C205  1  0.124900  0.279200  0.119200  1.0  0.6926
  C  C206  1  0.047000  0.322600  0.079800  1.0  -0.0349
  C  C207  1  0.039100  0.372700  0.124200  1.0  -0.0894
  C  C208  1  0.971700  0.413600  0.085600  1.0  -0.1221
  C  C209  1  0.910600  0.405600  0.001500  1.0  0.1862
  C  C210  1  0.914100  0.353800  0.960500  1.0  -0.0977
  C  C211  1  0.979800  0.313800  0.996400  1.0  -0.096
  C  C212  1  0.157100  0.706600  0.336600  1.0  0.1749
  C  C213  1  0.175600  0.686300  0.422600  1.0  -0.1787
  C  C214  1  0.103600  0.659000  0.447900  1.0  0.0167
  C  C215  1  0.013200  0.652500  0.388300  1.0  -0.1593
  C  C216  1  0.998100  0.673400  0.303300  1.0  -0.051
  C  C217  1  0.068600  0.700500  0.276800  1.0  -0.1973
  C  C218  1  0.939100  0.621390  0.417300  1.0  0.7117
  C  C219  1  0.217300  0.788400  0.269200  1.0  0.1913
  C  C220  1  0.147300  0.826700  0.280400  1.0  -0.1273
  C  C221  1  0.134800  0.879500  0.237900  1.0  -0.0484
  C  C222  1  0.193500  0.896300  0.189300  1.0  -0.0637
  C  C223  1  0.261000  0.858900  0.175900  1.0  -0.041
  C  C224  1  0.272500  0.805300  0.212700  1.0  -0.1473
  C  C225  1  0.183200  0.955600  0.148900  1.0  0.6889
  C  C226  1  0.323700  0.708500  0.333100  1.0  0.2009
  C  C227  1  0.407100  0.740700  0.368200  1.0  -0.1189
  C  C228  1  0.496900  0.714400  0.385600  1.0  -0.033
  C  C229  1  0.502900  0.656900  0.372100  1.0  -0.0942
  C  C230  1  0.420300  0.624600  0.339300  1.0  -0.0305
  C  C231  1  0.332000  0.650800  0.322200  1.0  -0.179
  C  C232  1  0.598600  0.629400  0.389700  1.0  0.7305
  C  C233  1  0.156200  0.964000  0.632200  1.0  0.1856
  C  C234  1  0.237100  0.991100  0.686900  1.0  -0.2196
  C  C235  1  0.238000  0.007900  0.772700  1.0  -0.0268
  C  C236  1  0.166500  0.995200  0.807100  1.0  -0.0591
  C  C237  1  0.087000  0.966700  0.752100  1.0  -0.0612
  C  C238  1  0.083400  0.952200  0.666300  1.0  -0.149
  C  C239  1  0.168500  0.012100  0.899800  1.0  0.7141
  C  C240  1  0.185700  0.992400  0.491200  1.0  0.1646
  C  C241  1  0.226800  0.975700  0.425700  1.0  -0.1865
  C  C242  1  0.253900  0.015300  0.374400  1.0  -0.0377
  C  C243  1  0.241700  0.073700  0.386000  1.0  -0.1303
  C  C244  1  0.201800  0.089100  0.449200  1.0  -0.0273
  C  C245  1  0.170500  0.050000  0.501800  1.0  -0.2483
  C  C246  1  0.266900  0.117300  0.325000  1.0  0.6764
  C  C247  1  0.875100  0.779200  0.380800  1.0  0.6932
  C  C248  1  0.953000  0.822600  0.420200  1.0  -0.0348
  C  C249  1  0.960900  0.872700  0.375800  1.0  -0.0883
  C  C250  1  0.028300  0.913600  0.414400  1.0  -0.1218
  C  C251  1  0.089400  0.905600  0.498500  1.0  0.1865
  C  C252  1  0.085900  0.853800  0.539500  1.0  -0.0983
  C  C253  1  0.020200  0.813800  0.503600  1.0  -0.1043
  C  C254  1  0.842900  0.206600  0.163400  1.0  0.1736
  C  C255  1  0.824400  0.186300  0.077400  1.0  -0.1785
  C  C256  1  0.896400  0.159000  0.052100  1.0  0.0161
  C  C257  1  0.986800  0.152500  0.111700  1.0  -0.1586
  C  C258  1  0.001900  0.173400  0.196700  1.0  -0.0476
  C  C259  1  0.931400  0.200500  0.223200  1.0  -0.1965
  C  C260  1  0.060900  0.121390  0.082700  1.0  0.7108
  C  C261  1  0.782700  0.288400  0.230800  1.0  0.1921
  C  C262  1  0.852700  0.326700  0.219600  1.0  -0.1253
  C  C263  1  0.865200  0.379500  0.262100  1.0  -0.0468
  C  C264  1  0.806500  0.396300  0.310700  1.0  -0.0634
  C  C265  1  0.739000  0.358900  0.324100  1.0  -0.0419
  C  C266  1  0.727500  0.305300  0.287300  1.0  -0.149
  C  C267  1  0.816800  0.455600  0.351100  1.0  0.6894
  C  C268  1  0.676300  0.208500  0.166900  1.0  0.1989
  C  C269  1  0.592900  0.240700  0.131800  1.0  -0.12
  C  C270  1  0.503100  0.214400  0.114400  1.0  -0.0352
  C  C271  1  0.497100  0.156900  0.127900  1.0  -0.0962
  C  C272  1  0.579700  0.124600  0.160700  1.0  -0.0302
  C  C273  1  0.668000  0.150800  0.177800  1.0  -0.181
  C  C274  1  0.401400  0.129400  0.110300  1.0  0.7317
  N  N275  1  0.153700  0.550120  0.043200  1.0  -0.2092
  N  N276  1  0.766700  0.265270  0.689200  1.0  -0.1378
  N  N277  1  0.846300  0.050120  0.456800  1.0  -0.2096
  N  N278  1  0.233300  0.765270  0.810800  1.0  -0.1363
  N  N279  1  0.846300  0.449880  0.956800  1.0  -0.2106
  N  N280  1  0.233300  0.734730  0.310800  1.0  -0.1366
  N  N281  1  0.153700  0.949880  0.543200  1.0  -0.2101
  N  N282  1  0.766700  0.234730  0.189200  1.0  -0.1378
  O  O283  1  0.110900  0.515430  0.433200  1.0  -0.662
  O  O284  1  0.223700  0.449600  0.438800  1.0  -0.5769
  O  O285  1  0.312800  0.397800  0.773900  1.0  -0.6364
  O  O286  1  0.237700  0.331200  0.828300  1.0  -0.5935
  O  O287  1  0.850100  0.754250  0.932300  1.0  -0.5907
  O  O288  1  0.837000  0.720150  0.798600  1.0  -0.6092
  O  O289  1  0.040300  0.405360  0.512400  1.0  -0.6701
  O  O290  1  0.146900  0.376120  0.634700  1.0  -0.6557
  O  O291  1  0.891200  0.016960  0.864200  1.0  -0.6312
  O  O292  1  0.740500  0.025320  0.866700  1.0  -0.5908
  O  O293  1  0.327800  0.341120  0.595400  1.0  -0.7029
  O  O294  1  0.396800  0.423560  0.611300  1.0  -0.58
  O  O295  1  0.889100  0.015430  0.066800  1.0  -0.6624
  O  O296  1  0.776300  0.949600  0.061200  1.0  -0.5774
  O  O297  1  0.687200  0.897800  0.726100  1.0  -0.6384
  O  O298  1  0.762300  0.831200  0.671700  1.0  -0.5921
  O  O299  1  0.149900  0.254250  0.567700  1.0  -0.5909
  O  O300  1  0.163000  0.220150  0.701400  1.0  -0.6107
  O  O301  1  0.959700  0.905360  0.987600  1.0  -0.6738
  O  O302  1  0.853100  0.876120  0.865300  1.0  -0.6555
  O  O303  1  0.108800  0.516960  0.635800  1.0  -0.63
  O  O304  1  0.259500  0.525320  0.633300  1.0  -0.5887
  O  O305  1  0.672200  0.841120  0.904600  1.0  -0.7033
  O  O306  1  0.603200  0.923560  0.888700  1.0  -0.5817
  O  O307  1  0.889100  0.484570  0.566800  1.0  -0.6627
  O  O308  1  0.776300  0.550400  0.561200  1.0  -0.5774
  O  O309  1  0.687200  0.602200  0.226100  1.0  -0.64
  O  O310  1  0.762300  0.668800  0.171700  1.0  -0.5919
  O  O311  1  0.149900  0.245750  0.067700  1.0  -0.5906
  O  O312  1  0.163000  0.279850  0.201400  1.0  -0.6118
  O  O313  1  0.959700  0.594640  0.487600  1.0  -0.6738
  O  O314  1  0.853100  0.623880  0.365300  1.0  -0.6547
  O  O315  1  0.108800  0.983040  0.135800  1.0  -0.63
  O  O316  1  0.259500  0.974680  0.133300  1.0  -0.5885
  O  O317  1  0.672200  0.658880  0.404600  1.0  -0.7046
  O  O318  1  0.603200  0.576440  0.388700  1.0  -0.5834
  O  O319  1  0.110900  0.984570  0.933200  1.0  -0.6629
  O  O320  1  0.223700  0.050400  0.938800  1.0  -0.5776
  O  O321  1  0.312800  0.102200  0.273900  1.0  -0.6364
  O  O322  1  0.237700  0.168800  0.328300  1.0  -0.5921
  O  O323  1  0.850100  0.745750  0.432300  1.0  -0.5908
  O  O324  1  0.837000  0.779850  0.298600  1.0  -0.6099
  O  O325  1  0.040300  0.094640  0.012400  1.0  -0.6709
  O  O326  1  0.146900  0.123880  0.134700  1.0  -0.6544
  O  O327  1  0.891200  0.483040  0.364200  1.0  -0.6316
  O  O328  1  0.740500  0.474680  0.366700  1.0  -0.5903
  O  O329  1  0.327800  0.158880  0.095400  1.0  -0.7021
  O  O330  1  0.396800  0.076440  0.111300  1.0  -0.583
