# generated using pymatgen
data_Cd3H48C84(NO6)4
_symmetry_space_group_name_H-M   'P 1'
_cell_length_a   14.39970000
_cell_length_b   23.36200000
_cell_length_c   15.54300000
_cell_angle_alpha   90.00000000
_cell_angle_beta   106.30900000
_cell_angle_gamma   90.00000000
_symmetry_Int_Tables_number   1
_chemical_formula_structural   Cd3H48C84(NO6)4
_chemical_formula_sum   'Cd6 H96 C168 N8 O48'
_cell_volume   5018.35634433
_cell_formula_units_Z   2
loop_
 _symmetry_equiv_pos_site_id
 _symmetry_equiv_pos_as_xyz
  1  'x, y, z'
loop_
 _atom_site_type_symbol
 _atom_site_label
 _atom_site_symmetry_multiplicity
 _atom_site_fract_x
 _atom_site_fract_y
 _atom_site_fract_z
 _atom_site_occupancy
 _atom_site_charge
  Cd  Cd1  1  0.258890  0.059070  0.924500  1.0  1.0597
  Cd  Cd2  1  0.741110  0.559070  0.575500  1.0  1.0597
  Cd  Cd3  1  0.741110  0.940930  0.075500  1.0  1.0596
  Cd  Cd4  1  0.258890  0.440930  0.424500  1.0  1.0601
  Cd  Cd5  1  0.500000  0.000000  0.000000  1.0  1.1552
  Cd  Cd6  1  0.500000  0.500000  0.500000  1.0  1.1552
  H  H7  1  0.475100  0.941800  0.626100  1.0  0.0845
  H  H8  1  0.594200  0.881300  0.692000  1.0  0.1283
  H  H9  1  0.507100  0.778300  0.490300  1.0  0.1151
  H  H10  1  0.378400  0.839000  0.418600  1.0  0.1397
  H  H11  1  0.470000  0.924600  0.374400  1.0  0.1139
  H  H12  1  0.465400  0.956900  0.230700  1.0  0.1172
  H  H13  1  0.211600  0.022100  0.205500  1.0  0.127
  H  H14  1  0.211800  0.986100  0.343000  1.0  0.143
  H  H15  1  0.247800  0.925000  0.579600  1.0  0.1537
  H  H16  1  0.208700  0.994700  0.679000  1.0  0.1197
  H  H17  1  0.307400  0.115700  0.556100  1.0  0.0959
  H  H18  1  0.358800  0.052600  0.471200  1.0  0.0977
  H  H19  1  0.726800  0.188100  0.957800  1.0  0.1519
  H  H20  1  0.606300  0.144800  0.998700  1.0  0.0837
  H  H21  1  0.421800  0.170700  0.761000  1.0  0.1195
  H  H22  1  0.540300  0.215300  0.713000  1.0  0.1464
  H  H23  1  0.594900  0.317500  0.792500  1.0  0.1246
  H  H24  1  0.588600  0.403500  0.727100  1.0  0.0887
  H  H25  1  0.811800  0.367300  0.640100  1.0  0.1192
  H  H26  1  0.819600  0.273800  0.694500  1.0  0.1489
  H  H27  1  0.892200  0.275500  0.872900  1.0  0.149
  H  H28  1  0.040800  0.232100  0.905300  1.0  0.1225
  H  H29  1  0.913700  0.081900  0.829300  1.0  0.108
  H  H30  1  0.765000  0.128500  0.777000  1.0  0.1359
  H  H31  1  0.524900  0.441800  0.873900  1.0  0.0848
  H  H32  1  0.405800  0.381300  0.808000  1.0  0.1287
  H  H33  1  0.492900  0.278300  0.009700  1.0  0.1152
  H  H34  1  0.621600  0.339000  0.081400  1.0  0.1408
  H  H35  1  0.530000  0.424600  0.125600  1.0  0.114
  H  H36  1  0.534600  0.456900  0.269300  1.0  0.1171
  H  H37  1  0.788400  0.522100  0.294500  1.0  0.1273
  H  H38  1  0.788200  0.486100  0.157000  1.0  0.1442
  H  H39  1  0.752200  0.425000  0.920400  1.0  0.155
  H  H40  1  0.791300  0.494700  0.821000  1.0  0.1202
  H  H41  1  0.692600  0.615700  0.943900  1.0  0.0961
  H  H42  1  0.641200  0.552600  0.028800  1.0  0.098
  H  H43  1  0.273200  0.688100  0.542200  1.0  0.1527
  H  H44  1  0.393700  0.644800  0.501300  1.0  0.0846
  H  H45  1  0.578200  0.670700  0.739000  1.0  0.1192
  H  H46  1  0.459700  0.715300  0.787000  1.0  0.1457
  H  H47  1  0.405100  0.817500  0.707500  1.0  0.1244
  H  H48  1  0.411400  0.903500  0.772900  1.0  0.0887
  H  H49  1  0.188200  0.867300  0.859900  1.0  0.1185
  H  H50  1  0.180400  0.773800  0.805500  1.0  0.1485
  H  H51  1  0.107800  0.775500  0.627100  1.0  0.1504
  H  H52  1  0.959200  0.732100  0.594700  1.0  0.1227
  H  H53  1  0.086300  0.581900  0.670700  1.0  0.1074
  H  H54  1  0.235000  0.628500  0.723000  1.0  0.135
  H  H55  1  0.524900  0.058200  0.373900  1.0  0.0847
  H  H56  1  0.405800  0.118700  0.308000  1.0  0.1288
  H  H57  1  0.492900  0.221700  0.509700  1.0  0.114
  H  H58  1  0.621600  0.161000  0.581400  1.0  0.1407
  H  H59  1  0.530000  0.075400  0.625600  1.0  0.1143
  H  H60  1  0.534600  0.043100  0.769300  1.0  0.1172
  H  H61  1  0.788400  0.977900  0.794500  1.0  0.1268
  H  H62  1  0.788200  0.013900  0.657000  1.0  0.144
  H  H63  1  0.752200  0.075000  0.420400  1.0  0.1546
  H  H64  1  0.791300  0.005300  0.321000  1.0  0.1205
  H  H65  1  0.692600  0.884300  0.443900  1.0  0.096
  H  H66  1  0.641200  0.947400  0.528800  1.0  0.0979
  H  H67  1  0.273200  0.811900  0.042200  1.0  0.1527
  H  H68  1  0.393700  0.855200  0.001300  1.0  0.0846
  H  H69  1  0.578200  0.829300  0.239000  1.0  0.1196
  H  H70  1  0.459700  0.784700  0.287000  1.0  0.1455
  H  H71  1  0.405100  0.682500  0.207500  1.0  0.1243
  H  H72  1  0.411400  0.596500  0.272900  1.0  0.0889
  H  H73  1  0.188200  0.632700  0.359900  1.0  0.1186
  H  H74  1  0.180400  0.726200  0.305500  1.0  0.1486
  H  H75  1  0.107800  0.724500  0.127100  1.0  0.1497
  H  H76  1  0.959200  0.767900  0.094700  1.0  0.122
  H  H77  1  0.086300  0.918100  0.170700  1.0  0.1071
  H  H78  1  0.235000  0.871500  0.223000  1.0  0.1349
  H  H79  1  0.475100  0.558200  0.126100  1.0  0.0847
  H  H80  1  0.594200  0.618700  0.192000  1.0  0.1282
  H  H81  1  0.507100  0.721700  0.990300  1.0  0.1144
  H  H82  1  0.378400  0.661000  0.918600  1.0  0.1402
  H  H83  1  0.470000  0.575400  0.874400  1.0  0.1142
  H  H84  1  0.465400  0.543100  0.730700  1.0  0.1171
  H  H85  1  0.211600  0.477900  0.705500  1.0  0.1263
  H  H86  1  0.211800  0.513900  0.843000  1.0  0.1433
  H  H87  1  0.247800  0.575000  0.079600  1.0  0.1541
  H  H88  1  0.208700  0.505300  0.179000  1.0  0.1197
  H  H89  1  0.307400  0.384300  0.056100  1.0  0.0953
  H  H90  1  0.358800  0.447400  0.971200  1.0  0.0978
  H  H91  1  0.726800  0.311900  0.457800  1.0  0.1521
  H  H92  1  0.606300  0.355200  0.498700  1.0  0.0841
  H  H93  1  0.421800  0.329300  0.261000  1.0  0.1189
  H  H94  1  0.540300  0.284700  0.213000  1.0  0.1464
  H  H95  1  0.594900  0.182500  0.292500  1.0  0.1245
  H  H96  1  0.588600  0.096500  0.227100  1.0  0.0883
  H  H97  1  0.811800  0.132700  0.140100  1.0  0.1191
  H  H98  1  0.819600  0.226200  0.194500  1.0  0.1487
  H  H99  1  0.892200  0.224500  0.372900  1.0  0.1488
  H  H100  1  0.040800  0.267900  0.405300  1.0  0.1223
  H  H101  1  0.913700  0.418100  0.329300  1.0  0.1075
  H  H102  1  0.765000  0.371500  0.277000  1.0  0.1365
  C  C103  1  0.417900  0.899700  0.515400  1.0  0.2394
  C  C104  1  0.481100  0.908300  0.595800  1.0  -0.0873
  C  C105  1  0.553000  0.871900  0.636200  1.0  -0.2005
  C  C106  1  0.566100  0.822300  0.597100  1.0  -0.008
  C  C107  1  0.501000  0.812600  0.518600  1.0  -0.0396
  C  C108  1  0.422500  0.849000  0.472800  1.0  -0.1581
  C  C109  1  0.645600  0.776400  0.624400  1.0  0.4982
  C  C110  1  0.344700  0.957400  0.374200  1.0  0.2565
  C  C111  1  0.417000  0.945200  0.340700  1.0  -0.1429
  C  C112  1  0.413200  0.963600  0.253500  1.0  -0.0951
  C  C113  1  0.337100  0.989900  0.204900  1.0  0.053
  C  C114  1  0.264300  0.001100  0.238800  1.0  -0.0817
  C  C115  1  0.266200  0.981900  0.322500  1.0  -0.1358
  C  C116  1  0.335200  0.008200  0.110300  1.0  0.7008
  C  C117  1  0.314000  0.983800  0.516800  1.0  0.2455
  C  C118  1  0.263100  0.963500  0.576800  1.0  -0.1545
  C  C119  1  0.235800  0.006600  0.634300  1.0  -0.0536
  C  C120  1  0.249700  0.064400  0.623100  1.0  0.0289
  C  C121  1  0.295400  0.077100  0.563500  1.0  -0.0251
  C  C122  1  0.327000  0.039000  0.511600  1.0  -0.2026
  C  C123  1  0.218100  0.102200  0.680000  1.0  0.708
  C  C124  1  0.644400  0.208900  0.830700  1.0  0.1609
  C  C125  1  0.665300  0.185400  0.917900  1.0  -0.1608
  C  C126  1  0.593700  0.159300  0.940900  1.0  -0.0296
  C  C127  1  0.503500  0.152800  0.884800  1.0  -0.1392
  C  C128  1  0.483700  0.174500  0.799900  1.0  0.0164
  C  C129  1  0.553600  0.201700  0.771500  1.0  -0.1271
  C  C130  1  0.426600  0.120500  0.914200  1.0  0.7181
  C  C131  1  0.709800  0.285700  0.754400  1.0  0.172
  C  C132  1  0.639200  0.326500  0.761000  1.0  -0.1329
  C  C133  1  0.636100  0.377800  0.722000  1.0  -0.0501
  C  C134  1  0.694900  0.393500  0.677900  1.0  0.0674
  C  C135  1  0.767400  0.355300  0.669600  1.0  -0.0718
  C  C136  1  0.774700  0.300000  0.704000  1.0  -0.204
  C  C137  1  0.697200  0.451500  0.638700  1.0  0.6909
  C  C138  1  0.817400  0.204900  0.826600  1.0  0.237
  C  C139  1  0.897000  0.236500  0.862700  1.0  -0.202
  C  C140  1  0.985500  0.209900  0.884100  1.0  -0.0271
  C  C141  1  0.996000  0.149800  0.875200  1.0  -0.0462
  C  C142  1  0.911100  0.121300  0.836600  1.0  -0.0056
  C  C143  1  0.820400  0.148400  0.807700  1.0  -0.1401
  C  C144  1  0.089900  0.123500  0.899000  1.0  0.7316
  C  C145  1  0.582100  0.399700  0.984600  1.0  0.24
  C  C146  1  0.518900  0.408300  0.904200  1.0  -0.0877
  C  C147  1  0.447000  0.371900  0.863800  1.0  -0.1996
  C  C148  1  0.433900  0.322300  0.902900  1.0  -0.0099
  C  C149  1  0.499000  0.312600  0.981400  1.0  -0.0403
  C  C150  1  0.577500  0.349000  0.027200  1.0  -0.1569
  C  C151  1  0.354400  0.276400  0.875600  1.0  0.497
  C  C152  1  0.655300  0.457400  0.125800  1.0  0.257
  C  C153  1  0.583000  0.445200  0.159300  1.0  -0.1432
  C  C154  1  0.586800  0.463600  0.246500  1.0  -0.0954
  C  C155  1  0.662900  0.489900  0.295100  1.0  0.0537
  C  C156  1  0.735700  0.501100  0.261200  1.0  -0.0819
  C  C157  1  0.733800  0.481900  0.177500  1.0  -0.1358
  C  C158  1  0.664800  0.508200  0.389700  1.0  0.7012
  C  C159  1  0.686000  0.483800  0.983200  1.0  0.2453
  C  C160  1  0.736900  0.463500  0.923200  1.0  -0.1538
  C  C161  1  0.764200  0.506600  0.865700  1.0  -0.0521
  C  C162  1  0.750300  0.564400  0.876900  1.0  0.0296
  C  C163  1  0.704600  0.577100  0.936500  1.0  -0.0245
  C  C164  1  0.673000  0.539000  0.988400  1.0  -0.2001
  C  C165  1  0.781900  0.602200  0.820000  1.0  0.7065
  C  C166  1  0.355600  0.708900  0.669300  1.0  0.1607
  C  C167  1  0.334700  0.685400  0.582100  1.0  -0.1611
  C  C168  1  0.406300  0.659300  0.559100  1.0  -0.0292
  C  C169  1  0.496500  0.652800  0.615200  1.0  -0.139
  C  C170  1  0.516300  0.674500  0.700100  1.0  0.0152
  C  C171  1  0.446400  0.701700  0.728500  1.0  -0.1272
  C  C172  1  0.573400  0.620500  0.585800  1.0  0.7172
  C  C173  1  0.290200  0.785700  0.745600  1.0  0.1716
  C  C174  1  0.360800  0.826500  0.739000  1.0  -0.1334
  C  C175  1  0.363900  0.877800  0.778000  1.0  -0.0511
  C  C176  1  0.305100  0.893500  0.822100  1.0  0.0655
  C  C177  1  0.232600  0.855300  0.830400  1.0  -0.0736
  C  C178  1  0.225300  0.800000  0.796000  1.0  -0.2068
  C  C179  1  0.302800  0.951500  0.861300  1.0  0.6909
  C  C180  1  0.182600  0.704900  0.673400  1.0  0.236
  C  C181  1  0.103000  0.736500  0.637300  1.0  -0.2013
  C  C182  1  0.014500  0.709900  0.615900  1.0  -0.0259
  C  C183  1  0.004000  0.649800  0.624800  1.0  -0.0469
  C  C184  1  0.088900  0.621300  0.663400  1.0  -0.0053
  C  C185  1  0.179600  0.648400  0.692300  1.0  -0.1419
  C  C186  1  0.910100  0.623500  0.601000  1.0  0.7306
  C  C187  1  0.582100  0.100300  0.484600  1.0  0.2403
  C  C188  1  0.518900  0.091700  0.404200  1.0  -0.0876
  C  C189  1  0.447000  0.128100  0.363800  1.0  -0.1996
  C  C190  1  0.433900  0.177700  0.402900  1.0  -0.008
  C  C191  1  0.499000  0.187400  0.481400  1.0  -0.0401
  C  C192  1  0.577500  0.151000  0.527200  1.0  -0.1572
  C  C193  1  0.354400  0.223600  0.375600  1.0  0.4988
  C  C194  1  0.655300  0.042600  0.625800  1.0  0.2575
  C  C195  1  0.583000  0.054800  0.659300  1.0  -0.1432
  C  C196  1  0.586800  0.036400  0.746500  1.0  -0.095
  C  C197  1  0.662900  0.010100  0.795100  1.0  0.0539
  C  C198  1  0.735700  0.998900  0.761200  1.0  -0.0804
  C  C199  1  0.733800  0.018100  0.677500  1.0  -0.1357
  C  C200  1  0.664800  0.991800  0.889700  1.0  0.7016
  C  C201  1  0.686000  0.016200  0.483200  1.0  0.2459
  C  C202  1  0.736900  0.036500  0.423200  1.0  -0.1564
  C  C203  1  0.764200  0.993400  0.365700  1.0  -0.0532
  C  C204  1  0.750300  0.935600  0.376900  1.0  0.0305
  C  C205  1  0.704600  0.922900  0.436500  1.0  -0.0237
  C  C206  1  0.673000  0.961000  0.488400  1.0  -0.1994
  C  C207  1  0.781900  0.897800  0.320000  1.0  0.7085
  C  C208  1  0.355600  0.791100  0.169300  1.0  0.161
  C  C209  1  0.334700  0.814600  0.082100  1.0  -0.1613
  C  C210  1  0.406300  0.840700  0.059100  1.0  -0.0292
  C  C211  1  0.496500  0.847200  0.115200  1.0  -0.1388
  C  C212  1  0.516300  0.825500  0.200100  1.0  0.0156
  C  C213  1  0.446400  0.798300  0.228500  1.0  -0.1265
  C  C214  1  0.573400  0.879500  0.085800  1.0  0.7175
  C  C215  1  0.290200  0.714300  0.245600  1.0  0.1715
  C  C216  1  0.360800  0.673500  0.239000  1.0  -0.1328
  C  C217  1  0.363900  0.622200  0.278000  1.0  -0.0521
  C  C218  1  0.305100  0.606500  0.322100  1.0  0.0651
  C  C219  1  0.232600  0.644700  0.330400  1.0  -0.0732
  C  C220  1  0.225300  0.700000  0.296000  1.0  -0.2067
  C  C221  1  0.302800  0.548500  0.361300  1.0  0.6899
  C  C222  1  0.182600  0.795100  0.173400  1.0  0.2368
  C  C223  1  0.103000  0.763500  0.137300  1.0  -0.2023
  C  C224  1  0.014500  0.790100  0.115900  1.0  -0.0239
  C  C225  1  0.004000  0.850200  0.124800  1.0  -0.0469
  C  C226  1  0.088900  0.878700  0.163400  1.0  -0.0068
  C  C227  1  0.179600  0.851600  0.192300  1.0  -0.1422
  C  C228  1  0.910100  0.876500  0.101000  1.0  0.7306
  C  C229  1  0.417900  0.600300  0.015400  1.0  0.2399
  C  C230  1  0.481100  0.591700  0.095800  1.0  -0.0874
  C  C231  1  0.553000  0.628100  0.136200  1.0  -0.2005
  C  C232  1  0.566100  0.677700  0.097100  1.0  -0.0077
  C  C233  1  0.501000  0.687400  0.018600  1.0  -0.0394
  C  C234  1  0.422500  0.651000  0.972800  1.0  -0.1583
  C  C235  1  0.645600  0.723600  0.124400  1.0  0.4992
  C  C236  1  0.344700  0.542600  0.874200  1.0  0.2568
  C  C237  1  0.417000  0.554800  0.840700  1.0  -0.1425
  C  C238  1  0.413200  0.536400  0.753500  1.0  -0.0944
  C  C239  1  0.337100  0.510100  0.704900  1.0  0.0524
  C  C240  1  0.264300  0.498900  0.738800  1.0  -0.0813
  C  C241  1  0.266200  0.518100  0.822500  1.0  -0.1365
  C  C242  1  0.335200  0.491800  0.610300  1.0  0.6995
  C  C243  1  0.314000  0.516200  0.016800  1.0  0.2464
  C  C244  1  0.263100  0.536500  0.076800  1.0  -0.1582
  C  C245  1  0.235800  0.493400  0.134300  1.0  -0.0544
  C  C246  1  0.249700  0.435600  0.123100  1.0  0.0274
  C  C247  1  0.295400  0.422900  0.063500  1.0  -0.025
  C  C248  1  0.327000  0.461000  0.011600  1.0  -0.2013
  C  C249  1  0.218100  0.397800  0.180000  1.0  0.7081
  C  C250  1  0.644400  0.291100  0.330700  1.0  0.1614
  C  C251  1  0.665300  0.314600  0.417900  1.0  -0.1613
  C  C252  1  0.593700  0.340700  0.440900  1.0  -0.0294
  C  C253  1  0.503500  0.347200  0.384800  1.0  -0.1392
  C  C254  1  0.483700  0.325500  0.299900  1.0  0.0164
  C  C255  1  0.553600  0.298300  0.271500  1.0  -0.1271
  C  C256  1  0.426600  0.379500  0.414200  1.0  0.7183
  C  C257  1  0.709800  0.214300  0.254400  1.0  0.172
  C  C258  1  0.639200  0.173500  0.261000  1.0  -0.133
  C  C259  1  0.636100  0.122200  0.222000  1.0  -0.0502
  C  C260  1  0.694900  0.106500  0.177900  1.0  0.0675
  C  C261  1  0.767400  0.144700  0.169600  1.0  -0.0716
  C  C262  1  0.774700  0.200000  0.204000  1.0  -0.2037
  C  C263  1  0.697200  0.048500  0.138700  1.0  0.6903
  C  C264  1  0.817400  0.295100  0.326600  1.0  0.2374
  C  C265  1  0.897000  0.263500  0.362700  1.0  -0.2018
  C  C266  1  0.985500  0.290100  0.384100  1.0  -0.0257
  C  C267  1  0.996000  0.350200  0.375200  1.0  -0.0467
  C  C268  1  0.911100  0.378700  0.336600  1.0  -0.0071
  C  C269  1  0.820400  0.351600  0.307700  1.0  -0.1395
  C  C270  1  0.089900  0.376500  0.399000  1.0  0.7322
  N  N271  1  0.351900  0.942600  0.465100  1.0  -0.2238
  N  N272  1  0.721800  0.233100  0.801800  1.0  -0.1998
  N  N273  1  0.648100  0.442600  0.034900  1.0  -0.2209
  N  N274  1  0.278200  0.733100  0.698200  1.0  -0.2012
  N  N275  1  0.648100  0.057400  0.534900  1.0  -0.2201
  N  N276  1  0.278200  0.766900  0.198200  1.0  -0.2013
  N  N277  1  0.351900  0.557400  0.965100  1.0  -0.2231
  N  N278  1  0.721800  0.266900  0.301800  1.0  -0.1997
  O  O279  1  0.684100  0.784500  0.715000  1.0  -0.5188
  O  O280  1  0.666667  0.744400  0.577600  1.0  -0.3892
  O  O281  1  0.395800  0.985500  0.077400  1.0  -0.5958
  O  O282  1  0.272200  0.044800  0.066800  1.0  -0.6351
  O  O283  1  0.182100  0.084700  0.742100  1.0  -0.6098
  O  O284  1  0.245300  0.156300  0.675400  1.0  -0.4939
  O  O285  1  0.447900  0.092600  0.983900  1.0  -0.6478
  O  O286  1  0.342700  0.120700  0.865700  1.0  -0.5861
  O  O287  1  0.621700  0.481000  0.628500  1.0  -0.6752
  O  O288  1  0.773700  0.469600  0.619200  1.0  -0.6153
  O  O289  1  0.092200  0.069600  0.900000  1.0  -0.5866
  O  O290  1  0.166500  0.151800  0.914000  1.0  -0.6005
  O  O291  1  0.315900  0.284500  0.785000  1.0  -0.5141
  O  O292  1  0.333333  0.244400  0.922400  1.0  -0.3889
  O  O293  1  0.604200  0.485500  0.422600  1.0  -0.5958
  O  O294  1  0.727800  0.544800  0.433200  1.0  -0.6337
  O  O295  1  0.817900  0.584700  0.757900  1.0  -0.6099
  O  O296  1  0.754700  0.656300  0.824600  1.0  -0.493
  O  O297  1  0.552100  0.592600  0.516100  1.0  -0.6475
  O  O298  1  0.657300  0.620700  0.634300  1.0  -0.5862
  O  O299  1  0.378300  0.981000  0.871500  1.0  -0.6765
  O  O300  1  0.226300  0.969600  0.880800  1.0  -0.6145
  O  O301  1  0.907800  0.569600  0.600000  1.0  -0.5886
  O  O302  1  0.833500  0.651800  0.586000  1.0  -0.6
  O  O303  1  0.315900  0.215500  0.285000  1.0  -0.5147
  O  O304  1  0.333333  0.255600  0.422400  1.0  -0.3887
  O  O305  1  0.604200  0.014500  0.922600  1.0  -0.5954
  O  O306  1  0.727800  0.955200  0.933200  1.0  -0.635
  O  O307  1  0.817900  0.915300  0.257900  1.0  -0.61
  O  O308  1  0.754700  0.843700  0.324600  1.0  -0.4937
  O  O309  1  0.552100  0.907400  0.016100  1.0  -0.6468
  O  O310  1  0.657300  0.879300  0.134300  1.0  -0.5859
  O  O311  1  0.378300  0.519000  0.371500  1.0  -0.6765
  O  O312  1  0.226300  0.530400  0.380800  1.0  -0.6146
  O  O313  1  0.907800  0.930400  0.100000  1.0  -0.5872
  O  O314  1  0.833500  0.848200  0.086000  1.0  -0.5997
  O  O315  1  0.684100  0.715500  0.215000  1.0  -0.5188
  O  O316  1  0.666667  0.755600  0.077600  1.0  -0.3893
  O  O317  1  0.395800  0.514500  0.577400  1.0  -0.5964
  O  O318  1  0.272200  0.455200  0.566800  1.0  -0.6342
  O  O319  1  0.182100  0.415300  0.242100  1.0  -0.6093
  O  O320  1  0.245300  0.343700  0.175400  1.0  -0.4937
  O  O321  1  0.447900  0.407400  0.483900  1.0  -0.6473
  O  O322  1  0.342700  0.379300  0.365700  1.0  -0.5859
  O  O323  1  0.621700  0.019000  0.128500  1.0  -0.6753
  O  O324  1  0.773700  0.030400  0.119200  1.0  -0.6152
  O  O325  1  0.092200  0.430400  0.400000  1.0  -0.5873
  O  O326  1  0.166500  0.348200  0.414000  1.0  -0.6003
