# generated using pymatgen
data_Cd5H48C84(NO6)4
_symmetry_space_group_name_H-M   'P 1'
_cell_length_a   14.51960000
_cell_length_b   23.36700000
_cell_length_c   15.60420000
_cell_angle_alpha   90.00000000
_cell_angle_beta   107.47500000
_cell_angle_gamma   90.00000000
_symmetry_Int_Tables_number   1
_chemical_formula_structural   Cd5H48C84(NO6)4
_chemical_formula_sum   'Cd10 H96 C168 N8 O48'
_cell_volume   5049.84819650
_cell_formula_units_Z   2
loop_
 _symmetry_equiv_pos_site_id
 _symmetry_equiv_pos_as_xyz
  1  'x, y, z'
loop_
 _atom_site_type_symbol
 _atom_site_label
 _atom_site_symmetry_multiplicity
 _atom_site_fract_x
 _atom_site_fract_y
 _atom_site_fract_z
 _atom_site_occupancy
 _atom_site_charge
  Cd  Cd1  1  0.743430  0.058090  0.083870  1.0  1.0563
  Cd  Cd2  1  0.766500  0.193780  0.194890  1.0  1.0828
  Cd  Cd3  1  0.256570  0.558090  0.416130  1.0  1.0568
  Cd  Cd4  1  0.233500  0.693780  0.305110  1.0  1.0793
  Cd  Cd5  1  0.256570  0.941910  0.916130  1.0  1.0559
  Cd  Cd6  1  0.233500  0.806220  0.805110  1.0  1.0781
  Cd  Cd7  1  0.743430  0.441910  0.583870  1.0  1.0554
  Cd  Cd8  1  0.766500  0.306220  0.694890  1.0  1.0805
  Cd  Cd9  1  0.500000  0.000000  0.000000  1.0  1.0848
  Cd  Cd10  1  0.500000  0.500000  0.500000  1.0  1.0848
  H  H11  1  0.791900  0.027000  0.802800  1.0  0.1325
  H  H12  1  0.533300  0.955800  0.772500  1.0  0.1122
  H  H13  1  0.800000  0.864400  0.136400  1.0  0.1297
  H  H14  1  0.587800  0.903300  0.239600  1.0  0.1061
  H  H15  1  0.784800  0.998500  0.661100  1.0  0.1317
  H  H16  1  0.525400  0.929800  0.628400  1.0  0.1069
  H  H17  1  0.811100  0.775600  0.197300  1.0  0.1333
  H  H18  1  0.603900  0.815300  0.308800  1.0  0.1225
  H  H19  1  0.737200  0.926300  0.420400  1.0  0.1289
  H  H20  1  0.642900  0.057500  0.535300  1.0  0.1151
  H  H21  1  0.523300  0.946000  0.379500  1.0  0.1077
  H  H22  1  0.623800  0.842600  0.589700  1.0  0.127
  H  H23  1  0.896800  0.775900  0.376700  1.0  0.1351
  H  H24  1  0.765500  0.625200  0.300400  1.0  0.1372
  H  H25  1  0.544100  0.714500  0.217100  1.0  0.1287
  H  H26  1  0.728700  0.692600  0.463200  1.0  0.1314
  H  H27  1  0.787300  0.989400  0.328200  1.0  0.1191
  H  H28  1  0.692800  0.120800  0.444200  1.0  0.1185
  H  H29  1  0.406800  0.879000  0.312600  1.0  0.1206
  H  H30  1  0.507900  0.776800  0.524800  1.0  0.1239
  H  H31  1  0.045700  0.732500  0.404700  1.0  0.1269
  H  H32  1  0.912900  0.581200  0.336300  1.0  0.1145
  H  H33  1  0.425900  0.668700  0.261100  1.0  0.1292
  H  H34  1  0.611700  0.647400  0.507700  1.0  0.1039
  H  H35  1  0.208100  0.527000  0.697200  1.0  0.133
  H  H36  1  0.466700  0.455800  0.727500  1.0  0.1118
  H  H37  1  0.200000  0.364400  0.363600  1.0  0.1298
  H  H38  1  0.412200  0.403300  0.260400  1.0  0.106
  H  H39  1  0.215200  0.498500  0.838900  1.0  0.1317
  H  H40  1  0.474600  0.429800  0.871600  1.0  0.1067
  H  H41  1  0.188900  0.275600  0.302700  1.0  0.1334
  H  H42  1  0.396100  0.315300  0.191200  1.0  0.1223
  H  H43  1  0.262800  0.426300  0.079600  1.0  0.1282
  H  H44  1  0.357100  0.557500  0.964700  1.0  0.1163
  H  H45  1  0.476700  0.446000  0.120500  1.0  0.1078
  H  H46  1  0.376200  0.342600  0.910300  1.0  0.1262
  H  H47  1  0.103200  0.275900  0.123300  1.0  0.1354
  H  H48  1  0.234500  0.125200  0.199600  1.0  0.1362
  H  H49  1  0.455900  0.214500  0.282900  1.0  0.1279
  H  H50  1  0.271300  0.192600  0.036800  1.0  0.131
  H  H51  1  0.212700  0.489400  0.171800  1.0  0.1187
  H  H52  1  0.307200  0.620800  0.055800  1.0  0.1189
  H  H53  1  0.593200  0.379000  0.187400  1.0  0.1205
  H  H54  1  0.492100  0.276800  0.975200  1.0  0.1237
  H  H55  1  0.954300  0.232500  0.095300  1.0  0.127
  H  H56  1  0.087100  0.081200  0.163700  1.0  0.114
  H  H57  1  0.574100  0.168700  0.238900  1.0  0.1295
  H  H58  1  0.388300  0.147400  0.992300  1.0  0.1045
  H  H59  1  0.208100  0.973000  0.197200  1.0  0.1318
  H  H60  1  0.466700  0.044200  0.227500  1.0  0.1116
  H  H61  1  0.200000  0.135600  0.863600  1.0  0.1299
  H  H62  1  0.412200  0.096700  0.760400  1.0  0.1064
  H  H63  1  0.215200  0.001500  0.338900  1.0  0.1317
  H  H64  1  0.474600  0.070200  0.371600  1.0  0.1071
  H  H65  1  0.188900  0.224400  0.802700  1.0  0.1336
  H  H66  1  0.396100  0.184700  0.691200  1.0  0.1222
  H  H67  1  0.262800  0.073700  0.579600  1.0  0.1281
  H  H68  1  0.357100  0.942500  0.464700  1.0  0.116
  H  H69  1  0.476700  0.054000  0.620500  1.0  0.1084
  H  H70  1  0.376200  0.157400  0.410300  1.0  0.1265
  H  H71  1  0.103200  0.224100  0.623300  1.0  0.1353
  H  H72  1  0.234500  0.374800  0.699600  1.0  0.1361
  H  H73  1  0.455900  0.285500  0.782900  1.0  0.1275
  H  H74  1  0.271300  0.307400  0.536800  1.0  0.1311
  H  H75  1  0.212700  0.010600  0.671800  1.0  0.1187
  H  H76  1  0.307200  0.879200  0.555800  1.0  0.1187
  H  H77  1  0.593200  0.121000  0.687400  1.0  0.1203
  H  H78  1  0.492100  0.223200  0.475200  1.0  0.1241
  H  H79  1  0.954300  0.267500  0.595300  1.0  0.1263
  H  H80  1  0.087100  0.418800  0.663700  1.0  0.1138
  H  H81  1  0.574100  0.331300  0.738900  1.0  0.1296
  H  H82  1  0.388300  0.352600  0.492300  1.0  0.1044
  H  H83  1  0.791900  0.473000  0.302800  1.0  0.1321
  H  H84  1  0.533300  0.544200  0.272500  1.0  0.1121
  H  H85  1  0.800000  0.635600  0.636400  1.0  0.1297
  H  H86  1  0.587800  0.596700  0.739600  1.0  0.1057
  H  H87  1  0.784800  0.501500  0.161100  1.0  0.1313
  H  H88  1  0.525400  0.570200  0.128400  1.0  0.1072
  H  H89  1  0.811100  0.724400  0.697300  1.0  0.1332
  H  H90  1  0.603900  0.684700  0.808800  1.0  0.1224
  H  H91  1  0.737200  0.573700  0.920400  1.0  0.1282
  H  H92  1  0.642900  0.442500  0.035300  1.0  0.115
  H  H93  1  0.523300  0.554000  0.879500  1.0  0.108
  H  H94  1  0.623800  0.657400  0.089700  1.0  0.1269
  H  H95  1  0.896800  0.724100  0.876700  1.0  0.1351
  H  H96  1  0.765500  0.874800  0.800400  1.0  0.1369
  H  H97  1  0.544100  0.785500  0.717100  1.0  0.1286
  H  H98  1  0.728700  0.807400  0.963200  1.0  0.1317
  H  H99  1  0.787300  0.510600  0.828200  1.0  0.1193
  H  H100  1  0.692800  0.379200  0.944200  1.0  0.1188
  H  H101  1  0.406800  0.621000  0.812600  1.0  0.1207
  H  H102  1  0.507900  0.723200  0.024800  1.0  0.1237
  H  H103  1  0.045700  0.767500  0.904700  1.0  0.1266
  H  H104  1  0.912900  0.918800  0.836300  1.0  0.1141
  H  H105  1  0.425900  0.831300  0.761100  1.0  0.1289
  H  H106  1  0.611700  0.852600  0.007700  1.0  0.1042
  C  C107  1  0.665400  0.011600  0.896900  1.0  0.7174
  C  C108  1  0.689000  0.952300  0.144200  1.0  0.7009
  C  C109  1  0.663000  0.994700  0.803100  1.0  -0.1337
  C  C110  1  0.693600  0.894000  0.182600  1.0  -0.0693
  C  C111  1  0.738100  0.007100  0.768100  1.0  -0.0715
  C  C112  1  0.583900  0.965100  0.749900  1.0  -0.004
  C  C113  1  0.760100  0.854500  0.170700  1.0  -0.0259
  C  C114  1  0.634600  0.878000  0.233000  1.0  -0.0236
  C  C115  1  0.733400  0.990300  0.683100  1.0  -0.1388
  C  C116  1  0.579500  0.949200  0.663700  1.0  -0.151
  C  C117  1  0.767900  0.801900  0.208200  1.0  -0.1881
  C  C118  1  0.643500  0.825100  0.274000  1.0  -0.1515
  C  C119  1  0.653500  0.961400  0.628800  1.0  0.1591
  C  C120  1  0.711400  0.786800  0.263000  1.0  0.1785
  C  C121  1  0.683500  0.985700  0.486500  1.0  0.1618
  C  C122  1  0.583200  0.902600  0.494400  1.0  0.2027
  C  C123  1  0.817300  0.706200  0.332200  1.0  0.1741
  C  C124  1  0.650200  0.707900  0.334500  1.0  0.2146
  C  C125  1  0.727800  0.965400  0.424900  1.0  -0.1668
  C  C126  1  0.671500  0.043500  0.493600  1.0  -0.1833
  C  C127  1  0.519200  0.912300  0.409600  1.0  -0.1418
  C  C128  1  0.578800  0.850900  0.534700  1.0  -0.1283
  C  C129  1  0.900300  0.736900  0.366000  1.0  -0.1753
  C  C130  1  0.821800  0.646600  0.321500  1.0  -0.21
  C  C131  1  0.558100  0.700700  0.275500  1.0  -0.124
  C  C132  1  0.667900  0.687600  0.422200  1.0  -0.1664
  C  C133  1  0.758400  0.003300  0.369700  1.0  0.0031
  C  C134  1  0.701900  0.081700  0.439000  1.0  -0.0017
  C  C135  1  0.449200  0.872000  0.369500  1.0  -0.0669
  C  C136  1  0.509600  0.811300  0.495600  1.0  -0.0807
  C  C137  1  0.989600  0.710800  0.384600  1.0  -0.044
  C  C138  1  0.909800  0.620700  0.342500  1.0  -0.0006
  C  C139  1  0.487000  0.673500  0.301800  1.0  -0.0516
  C  C140  1  0.597800  0.660600  0.449000  1.0  -0.099
  C  C141  1  0.745500  0.061700  0.377000  1.0  -0.1314
  C  C142  1  0.442200  0.821700  0.413500  1.0  -0.1279
  C  C143  1  0.995400  0.651800  0.373100  1.0  -0.1248
  C  C144  1  0.506700  0.652900  0.389900  1.0  -0.1464
  C  C145  1  0.774800  0.102100  0.314800  1.0  0.7177
  C  C146  1  0.363200  0.779700  0.372900  1.0  0.7059
  C  C147  1  0.090700  0.622100  0.391700  1.0  0.7218
  C  C148  1  0.435200  0.621000  0.419200  1.0  0.6946
  C  C149  1  0.334600  0.511600  0.603100  1.0  0.7181
  C  C150  1  0.311000  0.452300  0.355800  1.0  0.7016
  C  C151  1  0.337000  0.494700  0.696900  1.0  -0.1323
  C  C152  1  0.306400  0.394000  0.317400  1.0  -0.0709
  C  C153  1  0.261900  0.507100  0.731900  1.0  -0.0707
  C  C154  1  0.416100  0.465100  0.750100  1.0  -0.0038
  C  C155  1  0.239900  0.354500  0.329300  1.0  -0.0255
  C  C156  1  0.365400  0.378000  0.267000  1.0  -0.0242
  C  C157  1  0.266600  0.490300  0.816900  1.0  -0.1374
  C  C158  1  0.420500  0.449200  0.836300  1.0  -0.1531
  C  C159  1  0.232100  0.301900  0.291800  1.0  -0.1912
  C  C160  1  0.356500  0.325100  0.226000  1.0  -0.1513
  C  C161  1  0.346500  0.461400  0.871200  1.0  0.1596
  C  C162  1  0.288600  0.286800  0.237000  1.0  0.1779
  C  C163  1  0.316500  0.485700  0.013500  1.0  0.162
  C  C164  1  0.416800  0.402600  0.005600  1.0  0.2019
  C  C165  1  0.182700  0.206200  0.167800  1.0  0.172
  C  C166  1  0.349800  0.207900  0.165500  1.0  0.2139
  C  C167  1  0.272200  0.465400  0.075100  1.0  -0.1668
  C  C168  1  0.328500  0.543500  0.006400  1.0  -0.1826
  C  C169  1  0.480800  0.412300  0.090400  1.0  -0.1422
  C  C170  1  0.421200  0.350900  0.965300  1.0  -0.127
  C  C171  1  0.099700  0.236900  0.134000  1.0  -0.1745
  C  C172  1  0.178200  0.146600  0.178500  1.0  -0.2106
  C  C173  1  0.441900  0.200700  0.224500  1.0  -0.1241
  C  C174  1  0.332100  0.187600  0.077800  1.0  -0.1659
  C  C175  1  0.241600  0.503300  0.130300  1.0  0.0013
  C  C176  1  0.298100  0.581700  0.061000  1.0  0.0003
  C  C177  1  0.550800  0.372000  0.130500  1.0  -0.066
  C  C178  1  0.490400  0.311300  0.004400  1.0  -0.0808
  C  C179  1  0.010400  0.210800  0.115400  1.0  -0.0451
  C  C180  1  0.090200  0.120700  0.157500  1.0  -0.001
  C  C181  1  0.513000  0.173500  0.198200  1.0  -0.0544
  C  C182  1  0.402200  0.160600  0.051000  1.0  -0.0986
  C  C183  1  0.254500  0.561700  0.123000  1.0  -0.1324
  C  C184  1  0.557800  0.321700  0.086500  1.0  -0.1274
  C  C185  1  0.004600  0.151800  0.126900  1.0  -0.1244
  C  C186  1  0.493300  0.152900  0.110100  1.0  -0.1459
  C  C187  1  0.225200  0.602100  0.185200  1.0  0.7188
  C  C188  1  0.636800  0.279700  0.127100  1.0  0.7069
  C  C189  1  0.909300  0.122100  0.108300  1.0  0.7224
  C  C190  1  0.564800  0.121000  0.080800  1.0  0.6952
  C  C191  1  0.334600  0.988400  0.103100  1.0  0.7172
  C  C192  1  0.311000  0.047700  0.855800  1.0  0.7009
  C  C193  1  0.337000  0.005300  0.196900  1.0  -0.1339
  C  C194  1  0.306400  0.106000  0.817400  1.0  -0.0719
  C  C195  1  0.261900  0.992900  0.231900  1.0  -0.0711
  C  C196  1  0.416100  0.034900  0.250100  1.0  -0.0045
  C  C197  1  0.239900  0.145500  0.829300  1.0  -0.025
  C  C198  1  0.365400  0.122000  0.767000  1.0  -0.0249
  C  C199  1  0.266600  0.009700  0.316900  1.0  -0.1376
  C  C200  1  0.420500  0.050800  0.336300  1.0  -0.1529
  C  C201  1  0.232100  0.198100  0.791800  1.0  -0.1911
  C  C202  1  0.356500  0.174900  0.726000  1.0  -0.1515
  C  C203  1  0.346500  0.038600  0.371200  1.0  0.1596
  C  C204  1  0.288600  0.213200  0.737000  1.0  0.1782
  C  C205  1  0.316500  0.014300  0.513500  1.0  0.162
  C  C206  1  0.416800  0.097400  0.505600  1.0  0.2029
  C  C207  1  0.182700  0.293800  0.667800  1.0  0.1723
  C  C208  1  0.349800  0.292100  0.665500  1.0  0.2143
  C  C209  1  0.272200  0.034600  0.575100  1.0  -0.1685
  C  C210  1  0.328500  0.956500  0.506400  1.0  -0.1829
  C  C211  1  0.480800  0.087700  0.590400  1.0  -0.1426
  C  C212  1  0.421200  0.149100  0.465300  1.0  -0.1275
  C  C213  1  0.099700  0.263100  0.634000  1.0  -0.1768
  C  C214  1  0.178200  0.353400  0.678500  1.0  -0.2112
  C  C215  1  0.441900  0.299300  0.724500  1.0  -0.1242
  C  C216  1  0.332100  0.312400  0.577800  1.0  -0.1659
  C  C217  1  0.241600  0.996700  0.630300  1.0  0.0008
  C  C218  1  0.298100  0.918300  0.561000  1.0  0.002
  C  C219  1  0.550800  0.128000  0.630500  1.0  -0.0657
  C  C220  1  0.490400  0.188700  0.504400  1.0  -0.0807
  C  C221  1  0.010400  0.289200  0.615400  1.0  -0.0434
  C  C222  1  0.090200  0.379300  0.657500  1.0  -0.0004
  C  C223  1  0.513000  0.326500  0.698200  1.0  -0.0543
  C  C224  1  0.402200  0.339400  0.551000  1.0  -0.0985
  C  C225  1  0.254500  0.938300  0.623000  1.0  -0.1331
  C  C226  1  0.557800  0.178300  0.586500  1.0  -0.1272
  C  C227  1  0.004600  0.348200  0.626900  1.0  -0.1238
  C  C228  1  0.493300  0.347100  0.610100  1.0  -0.1455
  C  C229  1  0.225200  0.897900  0.685200  1.0  0.7176
  C  C230  1  0.636800  0.220300  0.627100  1.0  0.7068
  C  C231  1  0.909300  0.377900  0.608300  1.0  0.7224
  C  C232  1  0.564800  0.379000  0.580800  1.0  0.6955
  C  C233  1  0.665400  0.488400  0.396900  1.0  0.7183
  C  C234  1  0.689000  0.547700  0.644200  1.0  0.7004
  C  C235  1  0.663000  0.505300  0.303100  1.0  -0.1348
  C  C236  1  0.693600  0.606000  0.682600  1.0  -0.0699
  C  C237  1  0.738100  0.492900  0.268100  1.0  -0.0697
  C  C238  1  0.583900  0.534900  0.249900  1.0  -0.0041
  C  C239  1  0.760100  0.645500  0.670700  1.0  -0.0264
  C  C240  1  0.634600  0.622000  0.733000  1.0  -0.0239
  C  C241  1  0.733400  0.509700  0.183100  1.0  -0.138
  C  C242  1  0.579500  0.550800  0.163700  1.0  -0.151
  C  C243  1  0.767900  0.698100  0.708200  1.0  -0.1879
  C  C244  1  0.643500  0.674900  0.774000  1.0  -0.1517
  C  C245  1  0.653500  0.538600  0.128800  1.0  0.1589
  C  C246  1  0.711400  0.713200  0.763000  1.0  0.1787
  C  C247  1  0.683500  0.514300  0.986500  1.0  0.1618
  C  C248  1  0.583200  0.597400  0.994400  1.0  0.2032
  C  C249  1  0.817300  0.793800  0.832200  1.0  0.1742
  C  C250  1  0.650200  0.792100  0.834500  1.0  0.2148
  C  C251  1  0.727800  0.534600  0.924900  1.0  -0.1676
  C  C252  1  0.671500  0.456500  0.993600  1.0  -0.1827
  C  C253  1  0.519200  0.587700  0.909600  1.0  -0.1414
  C  C254  1  0.578800  0.649100  0.034700  1.0  -0.129
  C  C255  1  0.900300  0.763100  0.866000  1.0  -0.1768
  C  C256  1  0.821800  0.853400  0.821500  1.0  -0.21
  C  C257  1  0.558100  0.799300  0.775500  1.0  -0.1241
  C  C258  1  0.667900  0.812400  0.922200  1.0  -0.167
  C  C259  1  0.758400  0.496700  0.869700  1.0  0.0031
  C  C260  1  0.701900  0.418300  0.939000  1.0  -0.0008
  C  C261  1  0.449200  0.628000  0.869500  1.0  -0.0667
  C  C262  1  0.509600  0.688700  0.995600  1.0  -0.08
  C  C263  1  0.989600  0.789200  0.884600  1.0  -0.0434
  C  C264  1  0.909800  0.879300  0.842500  1.0  -0.0012
  C  C265  1  0.487000  0.826500  0.801800  1.0  -0.0518
  C  C266  1  0.597800  0.839400  0.949000  1.0  -0.0991
  C  C267  1  0.745500  0.438300  0.877000  1.0  -0.1322
  C  C268  1  0.442200  0.678300  0.913500  1.0  -0.1277
  C  C269  1  0.995400  0.848200  0.873100  1.0  -0.1248
  C  C270  1  0.506700  0.847100  0.889900  1.0  -0.1467
  C  C271  1  0.774800  0.397900  0.814800  1.0  0.7186
  C  C272  1  0.363200  0.720300  0.872900  1.0  0.7059
  C  C273  1  0.090700  0.877900  0.891700  1.0  0.722
  C  C274  1  0.435200  0.879000  0.919200  1.0  0.695
  N  N275  1  0.648900  0.945700  0.538900  1.0  -0.1789
  N  N276  1  0.725100  0.733100  0.307900  1.0  -0.1428
  N  N277  1  0.351100  0.445700  0.961100  1.0  -0.1803
  N  N278  1  0.274900  0.233100  0.192100  1.0  -0.1426
  N  N279  1  0.351100  0.054300  0.461100  1.0  -0.1796
  N  N280  1  0.274900  0.266900  0.692100  1.0  -0.1423
  N  N281  1  0.648900  0.554300  0.038900  1.0  -0.1785
  N  N282  1  0.725100  0.766900  0.807900  1.0  -0.1424
  O  O283  1  0.723800  0.050310  0.936000  1.0  -0.6179
  O  O284  1  0.762400  0.968420  0.123600  1.0  -0.5677
  O  O285  1  0.816600  0.082500  0.260700  1.0  -0.6616
  O  O286  1  0.833100  0.152930  0.094200  1.0  -0.7031
  O  O287  1  0.905900  0.069620  0.106100  1.0  -0.5942
  O  O288  1  0.652400  0.121350  0.130000  1.0  -0.6665
  O  O289  1  0.610900  0.985280  0.930700  1.0  -0.6186
  O  O290  1  0.616100  0.983450  0.134600  1.0  -0.653
  O  O291  1  0.538800  0.093820  0.008700  1.0  -0.6622
  O  O292  1  0.752400  0.153700  0.319600  1.0  -0.5695
  O  O293  1  0.320300  0.780600  0.291300  1.0  -0.6002
  O  O294  1  0.340200  0.744400  0.423200  1.0  -0.6019
  O  O295  1  0.276200  0.550310  0.564000  1.0  -0.6193
  O  O296  1  0.237600  0.468420  0.376400  1.0  -0.5684
  O  O297  1  0.183400  0.582500  0.239300  1.0  -0.6614
  O  O298  1  0.166900  0.652930  0.405800  1.0  -0.705
  O  O299  1  0.094100  0.569620  0.393900  1.0  -0.5932
  O  O300  1  0.347600  0.621350  0.370000  1.0  -0.6675
  O  O301  1  0.389100  0.485280  0.569300  1.0  -0.6195
  O  O302  1  0.383900  0.483450  0.365400  1.0  -0.6532
  O  O303  1  0.461200  0.593820  0.491300  1.0  -0.6628
  O  O304  1  0.247600  0.653700  0.180400  1.0  -0.5709
  O  O305  1  0.679700  0.280600  0.208700  1.0  -0.6018
  O  O306  1  0.659800  0.244400  0.076800  1.0  -0.6011
  O  O307  1  0.276200  0.949690  0.064000  1.0  -0.6163
  O  O308  1  0.237600  0.031580  0.876400  1.0  -0.5688
  O  O309  1  0.183400  0.917500  0.739300  1.0  -0.6616
  O  O310  1  0.166900  0.847070  0.905800  1.0  -0.7034
  O  O311  1  0.094100  0.930380  0.893900  1.0  -0.593
  O  O312  1  0.347600  0.878650  0.870000  1.0  -0.6673
  O  O313  1  0.389100  0.014720  0.069300  1.0  -0.6198
  O  O314  1  0.383900  0.016550  0.865400  1.0  -0.6523
  O  O315  1  0.461200  0.906180  0.991300  1.0  -0.6632
  O  O316  1  0.247600  0.846300  0.680400  1.0  -0.5712
  O  O317  1  0.679700  0.219400  0.708700  1.0  -0.6012
  O  O318  1  0.659800  0.255600  0.576800  1.0  -0.6001
  O  O319  1  0.723800  0.449690  0.436000  1.0  -0.6176
  O  O320  1  0.762400  0.531580  0.623600  1.0  -0.5684
  O  O321  1  0.816600  0.417500  0.760700  1.0  -0.6619
  O  O322  1  0.833100  0.347070  0.594200  1.0  -0.7035
  O  O323  1  0.905900  0.430380  0.606100  1.0  -0.593
  O  O324  1  0.652400  0.378650  0.630000  1.0  -0.6665
  O  O325  1  0.610900  0.514720  0.430700  1.0  -0.6183
  O  O326  1  0.616100  0.516550  0.634600  1.0  -0.6522
  O  O327  1  0.538800  0.406180  0.508700  1.0  -0.662
  O  O328  1  0.752400  0.346300  0.819600  1.0  -0.5717
  O  O329  1  0.320300  0.719400  0.791300  1.0  -0.5998
  O  O330  1  0.340200  0.755600  0.923200  1.0  -0.6023
