# generated using pymatgen
data_ZnH6C5N8
_symmetry_space_group_name_H-M   'P 1'
_cell_length_a   9.67670000
_cell_length_b   9.67670000
_cell_length_c   20.17200000
_cell_angle_alpha   90.00000000
_cell_angle_beta   90.00000000
_cell_angle_gamma   120.00000000
_symmetry_Int_Tables_number   1
_chemical_formula_structural   ZnH6C5N8
_chemical_formula_sum   'Zn6 H36 C30 N48'
_cell_volume   1635.81484632
_cell_formula_units_Z   6
loop_
 _symmetry_equiv_pos_site_id
 _symmetry_equiv_pos_as_xyz
  1  'x, y, z'
loop_
 _atom_site_type_symbol
 _atom_site_label
 _atom_site_symmetry_multiplicity
 _atom_site_fract_x
 _atom_site_fract_y
 _atom_site_fract_z
 _atom_site_occupancy
 _atom_site_charge
  Zn  Zn1  1  0.935150  0.505540  0.416260  1.0  0.832
  Zn  Zn2  1  0.494460  0.429610  0.749590  1.0  0.8336
  Zn  Zn3  1  0.570390  0.064850  0.082930  1.0  0.8319
  Zn  Zn4  1  0.505540  0.935150  0.583740  1.0  0.832
  Zn  Zn5  1  0.429610  0.494460  0.250410  1.0  0.8317
  Zn  Zn6  1  0.064850  0.570390  0.917070  1.0  0.8332
  H  H7  1  0.989200  0.650800  0.562900  1.0  0.1929
  H  H8  1  0.119600  0.791000  0.597100  1.0  0.3566
  H  H9  1  0.956200  0.066500  0.246400  1.0  0.2156
  H  H10  1  0.090900  0.163700  0.206600  1.0  0.3195
  H  H11  1  0.272800  0.748300  0.315600  1.0  0.1667
  H  H12  1  0.402800  0.701700  0.337700  1.0  0.1572
  H  H13  1  0.349200  0.338400  0.896230  1.0  0.2009
  H  H14  1  0.209000  0.328600  0.930430  1.0  0.3564
  H  H15  1  0.933500  0.889700  0.579730  1.0  0.222
  H  H16  1  0.836300  0.927200  0.539930  1.0  0.3198
  H  H17  1  0.251700  0.524500  0.648930  1.0  0.1661
  H  H18  1  0.298300  0.701100  0.671030  1.0  0.1562
  H  H19  1  0.661600  0.010800  0.229570  1.0  0.1936
  H  H20  1  0.671400  0.880400  0.263770  1.0  0.3573
  H  H21  1  0.110300  0.043800  0.913070  1.0  0.2152
  H  H22  1  0.072800  0.909100  0.873270  1.0  0.3204
  H  H23  1  0.475500  0.727200  0.982270  1.0  0.167
  H  H24  1  0.298900  0.597200  0.004370  1.0  0.1552
  H  H25  1  0.650800  0.989200  0.437100  1.0  0.1943
  H  H26  1  0.791000  0.119600  0.402900  1.0  0.3558
  H  H27  1  0.066500  0.956200  0.753600  1.0  0.2164
  H  H28  1  0.163700  0.090900  0.793400  1.0  0.3198
  H  H29  1  0.748300  0.272800  0.684400  1.0  0.1672
  H  H30  1  0.701700  0.402800  0.662300  1.0  0.154
  H  H31  1  0.338400  0.349200  0.103770  1.0  0.1931
  H  H32  1  0.328600  0.209000  0.069570  1.0  0.356
  H  H33  1  0.889700  0.933500  0.420270  1.0  0.2172
  H  H34  1  0.927200  0.836300  0.460070  1.0  0.3192
  H  H35  1  0.524500  0.251700  0.351070  1.0  0.1677
  H  H36  1  0.701100  0.298300  0.328970  1.0  0.1575
  H  H37  1  0.010800  0.661600  0.770430  1.0  0.2004
  H  H38  1  0.880400  0.671400  0.736230  1.0  0.3558
  H  H39  1  0.043800  0.110300  0.086930  1.0  0.2229
  H  H40  1  0.909100  0.072800  0.126730  1.0  0.3194
  H  H41  1  0.727200  0.475500  0.017730  1.0  0.1655
  H  H42  1  0.597200  0.298900  0.995630  1.0  0.1569
  C  C43  1  0.188700  0.751200  0.508800  1.0  0.55
  C  C44  1  0.281200  0.725400  0.417200  1.0  0.3791
  C  C45  1  0.292600  0.679500  0.345800  1.0  -0.3912
  C  C46  1  0.179300  0.509200  0.328910  1.0  0.3284
  C  C47  1  0.077200  0.280000  0.285600  1.0  0.5442
  C  C48  1  0.248800  0.437500  0.842130  1.0  0.5484
  C  C49  1  0.274600  0.555800  0.750530  1.0  0.38
  C  C50  1  0.320500  0.613100  0.679130  1.0  -0.3939
  C  C51  1  0.490800  0.670100  0.662240  1.0  0.3257
  C  C52  1  0.720000  0.797200  0.618930  1.0  0.5456
  C  C53  1  0.562500  0.811300  0.175470  1.0  0.5499
  C  C54  1  0.444200  0.718800  0.083870  1.0  0.3798
  C  C55  1  0.386900  0.707400  0.012470  1.0  -0.3897
  C  C56  1  0.329900  0.820700  0.995580  1.0  0.329
  C  C57  1  0.202800  0.922800  0.952270  1.0  0.5451
  C  C58  1  0.751200  0.188700  0.491200  1.0  0.5498
  C  C59  1  0.725400  0.281200  0.582800  1.0  0.3791
  C  C60  1  0.679500  0.292600  0.654200  1.0  -0.3902
  C  C61  1  0.509200  0.179300  0.671090  1.0  0.3285
  C  C62  1  0.280000  0.077200  0.714400  1.0  0.5454
  C  C63  1  0.437500  0.248800  0.157870  1.0  0.5495
  C  C64  1  0.555800  0.274600  0.249470  1.0  0.3785
  C  C65  1  0.613100  0.320500  0.320870  1.0  -0.3907
  C  C66  1  0.670100  0.490800  0.337760  1.0  0.3279
  C  C67  1  0.797200  0.720000  0.381070  1.0  0.5447
  C  C68  1  0.811300  0.562500  0.824530  1.0  0.5481
  C  C69  1  0.718800  0.444200  0.916130  1.0  0.3788
  C  C70  1  0.707400  0.386900  0.987530  1.0  -0.3951
  C  C71  1  0.820700  0.329900  0.004420  1.0  0.3253
  C  C72  1  0.922800  0.202800  0.047730  1.0  0.546
  N  N73  1  0.347700  0.831100  0.513120  1.0  -0.3173
  N  N74  1  0.407500  0.814400  0.452710  1.0  -0.3388
  N  N75  1  0.141300  0.682500  0.448790  1.0  -0.5185
  N  N76  1  0.086500  0.745600  0.556540  1.0  -0.6392
  N  N77  1  0.216100  0.421100  0.288510  1.0  -0.5463
  N  N78  1  0.031000  0.428100  0.349600  1.0  -0.2752
  N  N79  1  0.961200  0.274800  0.322640  1.0  -0.3495
  N  N80  1  0.061000  0.151500  0.249200  1.0  -0.6673
  N  N81  1  0.168900  0.516600  0.846450  1.0  -0.3176
  N  N82  1  0.185600  0.593100  0.786040  1.0  -0.3395
  N  N83  1  0.317500  0.458800  0.782120  1.0  -0.5174
  N  N84  1  0.254400  0.340900  0.889870  1.0  -0.6394
  N  N85  1  0.578900  0.795000  0.621840  1.0  -0.5467
  N  N86  1  0.571900  0.602900  0.682930  1.0  -0.2751
  N  N87  1  0.725200  0.686400  0.655970  1.0  -0.349
  N  N88  1  0.848500  0.909500  0.582530  1.0  -0.6694
  N  N89  1  0.483400  0.652300  0.179790  1.0  -0.3171
  N  N90  1  0.406900  0.592500  0.119380  1.0  -0.3397
  N  N91  1  0.541200  0.858700  0.115460  1.0  -0.5173
  N  N92  1  0.659100  0.913500  0.223210  1.0  -0.639
  N  N93  1  0.205000  0.783900  0.955180  1.0  -0.5461
  N  N94  1  0.397100  0.969000  0.016270  1.0  -0.2754
  N  N95  1  0.313600  0.038800  0.989310  1.0  -0.35
  N  N96  1  0.090500  0.939000  0.915870  1.0  -0.6711
  N  N97  1  0.831100  0.347700  0.486880  1.0  -0.3185
  N  N98  1  0.814400  0.407500  0.547290  1.0  -0.3401
  N  N99  1  0.682500  0.141300  0.551210  1.0  -0.5182
  N  N100  1  0.745600  0.086500  0.443460  1.0  -0.6385
  N  N101  1  0.421100  0.216100  0.711490  1.0  -0.546
  N  N102  1  0.428100  0.031000  0.650400  1.0  -0.2757
  N  N103  1  0.274800  0.961200  0.677360  1.0  -0.3493
  N  N104  1  0.151500  0.061000  0.750800  1.0  -0.6705
  N  N105  1  0.516600  0.168900  0.153550  1.0  -0.3169
  N  N106  1  0.593100  0.185600  0.213960  1.0  -0.3385
  N  N107  1  0.458800  0.317500  0.217880  1.0  -0.5182
  N  N108  1  0.340900  0.254400  0.110130  1.0  -0.6386
  N  N109  1  0.795000  0.578900  0.378160  1.0  -0.5466
  N  N110  1  0.602900  0.571900  0.317070  1.0  -0.2756
  N  N111  1  0.686400  0.725200  0.344030  1.0  -0.3494
  N  N112  1  0.909500  0.848500  0.417470  1.0  -0.6712
  N  N113  1  0.652300  0.483400  0.820210  1.0  -0.3176
  N  N114  1  0.592500  0.406900  0.880620  1.0  -0.3394
  N  N115  1  0.858700  0.541200  0.884540  1.0  -0.5178
  N  N116  1  0.913500  0.659100  0.776790  1.0  -0.6393
  N  N117  1  0.783900  0.205000  0.044820  1.0  -0.547
  N  N118  1  0.969000  0.397100  0.983730  1.0  -0.276
  N  N119  1  0.038800  0.313600  0.010690  1.0  -0.3485
  N  N120  1  0.939000  0.090500  0.084130  1.0  -0.6688
