# generated using pymatgen
data_ZnH6C5N8
_symmetry_space_group_name_H-M   'P 1'
_cell_length_a   9.66300000
_cell_length_b   9.66300000
_cell_length_c   20.22400000
_cell_angle_alpha   90.00000000
_cell_angle_beta   90.00000000
_cell_angle_gamma   120.00000000
_symmetry_Int_Tables_number   1
_chemical_formula_structural   ZnH6C5N8
_chemical_formula_sum   'Zn6 H36 C30 N48'
_cell_volume   1635.39116567
_cell_formula_units_Z   6
loop_
 _symmetry_equiv_pos_site_id
 _symmetry_equiv_pos_as_xyz
  1  'x, y, z'
loop_
 _atom_site_type_symbol
 _atom_site_label
 _atom_site_symmetry_multiplicity
 _atom_site_fract_x
 _atom_site_fract_y
 _atom_site_fract_z
 _atom_site_occupancy
 _atom_site_charge
  Zn  Zn1  1  0.935470  0.506410  0.416230  1.0  0.8466
  Zn  Zn2  1  0.493590  0.429060  0.749560  1.0  0.8482
  Zn  Zn3  1  0.570940  0.064530  0.082900  1.0  0.8464
  Zn  Zn4  1  0.506410  0.935470  0.583770  1.0  0.8467
  Zn  Zn5  1  0.429060  0.493590  0.250440  1.0  0.8462
  Zn  Zn6  1  0.064530  0.570940  0.917100  1.0  0.8478
  H  H7  1  0.987700  0.651900  0.562400  1.0  0.187
  H  H8  1  0.119100  0.789000  0.597900  1.0  0.3336
  H  H9  1  0.955100  0.076600  0.234100  1.0  0.1876
  H  H10  1  0.116700  0.164900  0.212600  1.0  0.3084
  H  H11  1  0.273600  0.748400  0.316700  1.0  0.1719
  H  H12  1  0.403500  0.701200  0.338600  1.0  0.1588
  H  H13  1  0.348100  0.335800  0.895730  1.0  0.1953
  H  H14  1  0.211000  0.330100  0.931230  1.0  0.3346
  H  H15  1  0.923400  0.878500  0.567430  1.0  0.1936
  H  H16  1  0.835100  0.951800  0.545930  1.0  0.3093
  H  H17  1  0.251600  0.525200  0.650030  1.0  0.1712
  H  H18  1  0.298800  0.702300  0.671930  1.0  0.1577
  H  H19  1  0.664200  0.012300  0.229070  1.0  0.1877
  H  H20  1  0.669900  0.880900  0.264570  1.0  0.3348
  H  H21  1  0.121500  0.044900  0.900770  1.0  0.1897
  H  H22  1  0.048200  0.883300  0.879270  1.0  0.309
  H  H23  1  0.474800  0.726400  0.983370  1.0  0.1721
  H  H24  1  0.297700  0.596500  0.005270  1.0  0.1573
  H  H25  1  0.651900  0.987700  0.437600  1.0  0.1889
  H  H26  1  0.789000  0.119100  0.402100  1.0  0.333
  H  H27  1  0.076600  0.955100  0.765900  1.0  0.1911
  H  H28  1  0.164900  0.116700  0.787400  1.0  0.3091
  H  H29  1  0.748400  0.273600  0.683300  1.0  0.1721
  H  H30  1  0.701200  0.403500  0.661400  1.0  0.1557
  H  H31  1  0.335800  0.348100  0.104270  1.0  0.1879
  H  H32  1  0.330100  0.211000  0.068770  1.0  0.3326
  H  H33  1  0.878500  0.923400  0.432570  1.0  0.1885
  H  H34  1  0.951800  0.835100  0.454070  1.0  0.3086
  H  H35  1  0.525200  0.251600  0.349970  1.0  0.1731
  H  H36  1  0.702300  0.298800  0.328070  1.0  0.1599
  H  H37  1  0.012300  0.664200  0.770930  1.0  0.1955
  H  H38  1  0.880900  0.669900  0.735430  1.0  0.3335
  H  H39  1  0.044900  0.121500  0.099230  1.0  0.1954
  H  H40  1  0.883300  0.048200  0.120730  1.0  0.3095
  H  H41  1  0.726400  0.474800  0.016630  1.0  0.171
  H  H42  1  0.596500  0.297700  0.994730  1.0  0.1583
  C  C43  1  0.190000  0.751600  0.509000  1.0  0.565
  C  C44  1  0.282400  0.724700  0.417500  1.0  0.3931
  C  C45  1  0.293300  0.679300  0.346800  1.0  -0.3926
  C  C46  1  0.179900  0.509800  0.330100  1.0  0.2605
  C  C47  1  0.076700  0.279000  0.286400  1.0  0.533
  C  C48  1  0.248400  0.438400  0.842330  1.0  0.5632
  C  C49  1  0.275300  0.557700  0.750830  1.0  0.3937
  C  C50  1  0.320700  0.614000  0.680130  1.0  -0.3953
  C  C51  1  0.490200  0.670100  0.663430  1.0  0.2585
  C  C52  1  0.721000  0.797700  0.619730  1.0  0.5339
  C  C53  1  0.561600  0.810000  0.175670  1.0  0.5652
  C  C54  1  0.442300  0.717600  0.084170  1.0  0.3939
  C  C55  1  0.386000  0.706700  0.013470  1.0  -0.3912
  C  C56  1  0.329900  0.820100  0.996770  1.0  0.2604
  C  C57  1  0.202300  0.923300  0.953070  1.0  0.5332
  C  C58  1  0.751600  0.190000  0.491000  1.0  0.5653
  C  C59  1  0.724700  0.282400  0.582500  1.0  0.3934
  C  C60  1  0.679300  0.293300  0.653200  1.0  -0.3922
  C  C61  1  0.509800  0.179900  0.669900  1.0  0.2605
  C  C62  1  0.279000  0.076700  0.713600  1.0  0.5329
  C  C63  1  0.438400  0.248400  0.157670  1.0  0.565
  C  C64  1  0.557700  0.275300  0.249170  1.0  0.3932
  C  C65  1  0.614000  0.320700  0.319870  1.0  -0.3923
  C  C66  1  0.670100  0.490200  0.336570  1.0  0.2608
  C  C67  1  0.797700  0.721000  0.380270  1.0  0.5328
  C  C68  1  0.810000  0.561600  0.824330  1.0  0.5632
  C  C69  1  0.717600  0.442300  0.915830  1.0  0.3933
  C  C70  1  0.706700  0.386000  0.986530  1.0  -0.3962
  C  C71  1  0.820100  0.329900  0.003230  1.0  0.2584
  C  C72  1  0.923300  0.202300  0.046930  1.0  0.5345
  N  N73  1  0.348000  0.830300  0.513560  1.0  -0.3152
  N  N74  1  0.408400  0.812300  0.453200  1.0  -0.331
  N  N75  1  0.141900  0.683100  0.449000  1.0  -0.5027
  N  N76  1  0.086700  0.745900  0.556700  1.0  -0.6136
  N  N77  1  0.216500  0.420000  0.289000  1.0  -0.5346
  N  N78  1  0.030100  0.426300  0.350500  1.0  -0.2541
  N  N79  1  0.960600  0.274200  0.322500  1.0  -0.3353
  N  N80  1  0.059500  0.150200  0.250600  1.0  -0.6692
  N  N81  1  0.169700  0.517700  0.846890  1.0  -0.3155
  N  N82  1  0.187700  0.596100  0.786530  1.0  -0.3318
  N  N83  1  0.316900  0.458800  0.782330  1.0  -0.5029
  N  N84  1  0.254100  0.340800  0.890030  1.0  -0.6141
  N  N85  1  0.580000  0.796500  0.622330  1.0  -0.5365
  N  N86  1  0.573700  0.603800  0.683830  1.0  -0.2543
  N  N87  1  0.725800  0.686400  0.655830  1.0  -0.3337
  N  N88  1  0.849800  0.909300  0.583930  1.0  -0.6707
  N  N89  1  0.482300  0.652000  0.180230  1.0  -0.3152
  N  N90  1  0.403900  0.591600  0.119870  1.0  -0.3316
  N  N91  1  0.541200  0.858100  0.115670  1.0  -0.5019
  N  N92  1  0.659200  0.913300  0.223370  1.0  -0.6146
  N  N93  1  0.203500  0.783500  0.955670  1.0  -0.5348
  N  N94  1  0.396200  0.969900  0.017170  1.0  -0.2536
  N  N95  1  0.313600  0.039400  0.989170  1.0  -0.3355
  N  N96  1  0.090700  0.940500  0.917270  1.0  -0.6714
  N  N97  1  0.830300  0.348000  0.486440  1.0  -0.3163
  N  N98  1  0.812300  0.408400  0.546800  1.0  -0.332
  N  N99  1  0.683100  0.141900  0.551000  1.0  -0.502
  N  N100  1  0.745900  0.086700  0.443300  1.0  -0.6125
  N  N101  1  0.420000  0.216500  0.711000  1.0  -0.536
  N  N102  1  0.426300  0.030100  0.649500  1.0  -0.2535
  N  N103  1  0.274200  0.960600  0.677500  1.0  -0.335
  N  N104  1  0.150200  0.059500  0.749400  1.0  -0.6725
  N  N105  1  0.517700  0.169700  0.153110  1.0  -0.3148
  N  N106  1  0.596100  0.187700  0.213470  1.0  -0.3313
  N  N107  1  0.458800  0.316900  0.217670  1.0  -0.5023
  N  N108  1  0.340800  0.254100  0.109970  1.0  -0.6131
  N  N109  1  0.796500  0.580000  0.377670  1.0  -0.5352
  N  N110  1  0.603800  0.573700  0.316170  1.0  -0.254
  N  N111  1  0.686400  0.725800  0.344170  1.0  -0.3351
  N  N112  1  0.909300  0.849800  0.416070  1.0  -0.6728
  N  N113  1  0.652000  0.482300  0.819770  1.0  -0.3155
  N  N114  1  0.591600  0.403900  0.880130  1.0  -0.3318
  N  N115  1  0.858100  0.541200  0.884330  1.0  -0.503
  N  N116  1  0.913300  0.659200  0.776630  1.0  -0.6136
  N  N117  1  0.783500  0.203500  0.044330  1.0  -0.5374
  N  N118  1  0.969900  0.396200  0.982830  1.0  -0.2546
  N  N119  1  0.039400  0.313600  0.010830  1.0  -0.3336
  N  N120  1  0.940500  0.090700  0.082730  1.0  -0.6708
