# generated using pymatgen
data_ZnH6C5N8
_symmetry_space_group_name_H-M   'P 1'
_cell_length_a   9.68960000
_cell_length_b   9.68960000
_cell_length_c   20.15300000
_cell_angle_alpha   90.00000000
_cell_angle_beta   90.00000000
_cell_angle_gamma   120.00000000
_symmetry_Int_Tables_number   1
_chemical_formula_structural   ZnH6C5N8
_chemical_formula_sum   'Zn6 H36 C30 N48'
_cell_volume   1638.63427580
_cell_formula_units_Z   6
loop_
 _symmetry_equiv_pos_site_id
 _symmetry_equiv_pos_as_xyz
  1  'x, y, z'
loop_
 _atom_site_type_symbol
 _atom_site_label
 _atom_site_symmetry_multiplicity
 _atom_site_fract_x
 _atom_site_fract_y
 _atom_site_fract_z
 _atom_site_occupancy
 _atom_site_charge
  Zn  Zn1  1  0.936740  0.506900  0.415980  1.0  0.8534
  Zn  Zn2  1  0.493100  0.429840  0.749310  1.0  0.8552
  Zn  Zn3  1  0.570160  0.063260  0.082650  1.0  0.8536
  Zn  Zn4  1  0.506900  0.936740  0.584020  1.0  0.8538
  Zn  Zn5  1  0.429840  0.493100  0.250690  1.0  0.8534
  Zn  Zn6  1  0.063260  0.570160  0.917350  1.0  0.8553
  H  H7  1  0.987400  0.653400  0.561300  1.0  0.2015
  H  H8  1  0.120000  0.784700  0.598600  1.0  0.3372
  H  H9  1  0.958100  0.083600  0.229000  1.0  0.1737
  H  H10  1  0.124900  0.164800  0.214700  1.0  0.299
  H  H11  1  0.274500  0.747000  0.316800  1.0  0.1789
  H  H12  1  0.403900  0.700100  0.339100  1.0  0.1664
  H  H13  1  0.346600  0.334000  0.894630  1.0  0.2104
  H  H14  1  0.215300  0.335300  0.931930  1.0  0.3388
  H  H15  1  0.916400  0.874500  0.562330  1.0  0.1764
  H  H16  1  0.835200  0.960100  0.548030  1.0  0.3008
  H  H17  1  0.253000  0.527500  0.650130  1.0  0.1781
  H  H18  1  0.299900  0.703800  0.672430  1.0  0.1649
  H  H19  1  0.666000  0.012600  0.227970  1.0  0.2027
  H  H20  1  0.664700  0.880000  0.265270  1.0  0.338
  H  H21  1  0.125500  0.041900  0.895670  1.0  0.1732
  H  H22  1  0.039900  0.875100  0.881370  1.0  0.3009
  H  H23  1  0.472500  0.725500  0.983470  1.0  0.1795
  H  H24  1  0.296200  0.596100  0.005770  1.0  0.1645
  H  H25  1  0.653400  0.987400  0.438700  1.0  0.2036
  H  H26  1  0.784700  0.120000  0.401400  1.0  0.3373
  H  H27  1  0.083600  0.958100  0.771000  1.0  0.1749
  H  H28  1  0.164800  0.124900  0.785300  1.0  0.3016
  H  H29  1  0.747000  0.274500  0.683200  1.0  0.1792
  H  H30  1  0.700100  0.403900  0.660900  1.0  0.1622
  H  H31  1  0.334000  0.346600  0.105370  1.0  0.2021
  H  H32  1  0.335300  0.215300  0.068070  1.0  0.3368
  H  H33  1  0.874500  0.916400  0.437670  1.0  0.1731
  H  H34  1  0.960100  0.835200  0.451970  1.0  0.3
  H  H35  1  0.527500  0.253000  0.349870  1.0  0.1796
  H  H36  1  0.703800  0.299900  0.327570  1.0  0.1672
  H  H37  1  0.012600  0.666000  0.772030  1.0  0.2104
  H  H38  1  0.880000  0.664700  0.734730  1.0  0.3378
  H  H39  1  0.041900  0.125500  0.104330  1.0  0.1772
  H  H40  1  0.875100  0.039900  0.118630  1.0  0.301
  H  H41  1  0.725500  0.472500  0.016530  1.0  0.1778
  H  H42  1  0.596100  0.296200  0.994230  1.0  0.1656
  C  C43  1  0.190200  0.751200  0.509300  1.0  0.6442
  C  C44  1  0.282900  0.724100  0.417800  1.0  0.3952
  C  C45  1  0.293900  0.678100  0.347100  1.0  -0.388
  C  C46  1  0.181000  0.508600  0.330100  1.0  0.2718
  C  C47  1  0.076800  0.278600  0.286100  1.0  0.3983
  C  C48  1  0.248800  0.439000  0.842630  1.0  0.6424
  C  C49  1  0.275900  0.558800  0.751130  1.0  0.396
  C  C50  1  0.321900  0.615800  0.680430  1.0  -0.3903
  C  C51  1  0.491400  0.672400  0.663430  1.0  0.2694
  C  C52  1  0.721400  0.798200  0.619430  1.0  0.3988
  C  C53  1  0.561000  0.809800  0.175970  1.0  0.6439
  C  C54  1  0.441200  0.717100  0.084470  1.0  0.3957
  C  C55  1  0.384200  0.706100  0.013770  1.0  -0.3872
  C  C56  1  0.327600  0.819000  0.996770  1.0  0.2717
  C  C57  1  0.201800  0.923200  0.952770  1.0  0.3974
  C  C58  1  0.751200  0.190200  0.490700  1.0  0.644
  C  C59  1  0.724100  0.282900  0.582200  1.0  0.3951
  C  C60  1  0.678100  0.293900  0.652900  1.0  -0.3883
  C  C61  1  0.508600  0.181000  0.669900  1.0  0.2719
  C  C62  1  0.278600  0.076800  0.713900  1.0  0.3979
  C  C63  1  0.439000  0.248800  0.157370  1.0  0.6439
  C  C64  1  0.558800  0.275900  0.248870  1.0  0.3948
  C  C65  1  0.615800  0.321900  0.319570  1.0  -0.3876
  C  C66  1  0.672400  0.491400  0.336570  1.0  0.2721
  C  C67  1  0.798200  0.721400  0.380570  1.0  0.3979
  C  C68  1  0.809800  0.561000  0.824030  1.0  0.6424
  C  C69  1  0.717100  0.441200  0.915530  1.0  0.395
  C  C70  1  0.706100  0.384200  0.986230  1.0  -0.3912
  C  C71  1  0.819000  0.327600  0.003230  1.0  0.2697
  C  C72  1  0.923200  0.201800  0.047230  1.0  0.3996
  N  N73  1  0.348500  0.831500  0.513490  1.0  -0.2826
  N  N74  1  0.409000  0.813500  0.453290  1.0  -0.3356
  N  N75  1  0.142900  0.682500  0.449010  1.0  -0.5051
  N  N76  1  0.088200  0.745700  0.556860  1.0  -0.6244
  N  N77  1  0.216800  0.419900  0.289020  1.0  -0.5376
  N  N78  1  0.031500  0.426900  0.350250  1.0  -0.2661
  N  N79  1  0.962900  0.275900  0.322200  1.0  -0.3163
  N  N80  1  0.059300  0.150500  0.249700  1.0  -0.6651
  N  N81  1  0.168500  0.517000  0.846820  1.0  -0.2828
  N  N82  1  0.186500  0.595500  0.786620  1.0  -0.3358
  N  N83  1  0.317500  0.460400  0.782340  1.0  -0.5053
  N  N84  1  0.254300  0.342500  0.890190  1.0  -0.6251
  N  N85  1  0.580100  0.796900  0.622350  1.0  -0.5398
  N  N86  1  0.573100  0.604600  0.683580  1.0  -0.266
  N  N87  1  0.724100  0.687000  0.655530  1.0  -0.3146
  N  N88  1  0.849500  0.908800  0.583030  1.0  -0.6673
  N  N89  1  0.483000  0.651500  0.180160  1.0  -0.2824
  N  N90  1  0.404500  0.591000  0.119960  1.0  -0.3367
  N  N91  1  0.539600  0.857100  0.115680  1.0  -0.5039
  N  N92  1  0.657500  0.911800  0.223530  1.0  -0.6246
  N  N93  1  0.203100  0.783200  0.955690  1.0  -0.5371
  N  N94  1  0.395400  0.968500  0.016920  1.0  -0.2659
  N  N95  1  0.313000  0.037100  0.988870  1.0  -0.3177
  N  N96  1  0.091200  0.940700  0.916370  1.0  -0.6702
  N  N97  1  0.831500  0.348500  0.486510  1.0  -0.2833
  N  N98  1  0.813500  0.409000  0.546710  1.0  -0.3367
  N  N99  1  0.682500  0.142900  0.550990  1.0  -0.5037
  N  N100  1  0.745700  0.088200  0.443140  1.0  -0.6226
  N  N101  1  0.419900  0.216800  0.710980  1.0  -0.5379
  N  N102  1  0.426900  0.031500  0.649750  1.0  -0.2663
  N  N103  1  0.275900  0.962900  0.677800  1.0  -0.3163
  N  N104  1  0.150500  0.059300  0.750300  1.0  -0.669
  N  N105  1  0.517000  0.168500  0.153180  1.0  -0.2822
  N  N106  1  0.595500  0.186500  0.213380  1.0  -0.3357
  N  N107  1  0.460400  0.317500  0.217660  1.0  -0.5044
  N  N108  1  0.342500  0.254300  0.109810  1.0  -0.6238
  N  N109  1  0.796900  0.580100  0.377650  1.0  -0.5374
  N  N110  1  0.604600  0.573100  0.316420  1.0  -0.2663
  N  N111  1  0.687000  0.724100  0.344470  1.0  -0.3159
  N  N112  1  0.908800  0.849500  0.416970  1.0  -0.6674
  N  N113  1  0.651500  0.483000  0.819840  1.0  -0.2825
  N  N114  1  0.591000  0.404500  0.880040  1.0  -0.3358
  N  N115  1  0.857100  0.539600  0.884320  1.0  -0.5052
  N  N116  1  0.911800  0.657500  0.776470  1.0  -0.6241
  N  N117  1  0.783200  0.203100  0.044310  1.0  -0.5392
  N  N118  1  0.968500  0.395400  0.983080  1.0  -0.2664
  N  N119  1  0.037100  0.313000  0.011130  1.0  -0.3145
  N  N120  1  0.940700  0.091200  0.083630  1.0  -0.6694
