# generated using pymatgen
data_ZnH6C5N8
_symmetry_space_group_name_H-M   'P 1'
_cell_length_a   9.76820000
_cell_length_b   9.76820000
_cell_length_c   20.10000000
_cell_angle_alpha   90.00000000
_cell_angle_beta   90.00000000
_cell_angle_gamma   120.00000000
_symmetry_Int_Tables_number   1
_chemical_formula_structural   ZnH6C5N8
_chemical_formula_sum   'Zn6 H36 C30 N48'
_cell_volume   1660.94700243
_cell_formula_units_Z   6
loop_
 _symmetry_equiv_pos_site_id
 _symmetry_equiv_pos_as_xyz
  1  'x, y, z'
loop_
 _atom_site_type_symbol
 _atom_site_label
 _atom_site_symmetry_multiplicity
 _atom_site_fract_x
 _atom_site_fract_y
 _atom_site_fract_z
 _atom_site_occupancy
 _atom_site_charge
  Zn  Zn1  1  0.958770  0.510320  0.415650  1.0  0.8458
  Zn  Zn2  1  0.489680  0.448450  0.748980  1.0  0.8457
  Zn  Zn3  1  0.551550  0.041230  0.082320  1.0  0.846
  Zn  Zn4  1  0.510320  0.958770  0.584350  1.0  0.8462
  Zn  Zn5  1  0.448450  0.489680  0.251020  1.0  0.8457
  Zn  Zn6  1  0.041230  0.551550  0.917680  1.0  0.8456
  H  H7  1  0.000900  0.667200  0.557400  1.0  0.189
  H  H8  1  0.131400  0.806200  0.592100  1.0  0.335
  H  H9  1  0.995500  0.104500  0.223600  1.0  0.1957
  H  H10  1  0.165400  0.164500  0.228400  1.0  0.3211
  H  H11  1  0.309200  0.742900  0.316500  1.0  0.163
  H  H12  1  0.428600  0.691800  0.346000  1.0  0.1505
  H  H13  1  0.332800  0.333700  0.890730  1.0  0.1963
  H  H14  1  0.193800  0.325200  0.925430  1.0  0.3369
  H  H15  1  0.895500  0.891000  0.556930  1.0  0.1955
  H  H16  1  0.835500  0.000900  0.561730  1.0  0.3162
  H  H17  1  0.257100  0.566300  0.649830  1.0  0.1624
  H  H18  1  0.308200  0.736800  0.679330  1.0  0.1486
  H  H19  1  0.666300  0.999100  0.224070  1.0  0.1891
  H  H20  1  0.674800  0.868600  0.258770  1.0  0.337
  H  H21  1  0.109000  0.004500  0.890270  1.0  0.1962
  H  H22  1  0.999100  0.834600  0.895070  1.0  0.319
  H  H23  1  0.433700  0.690800  0.983170  1.0  0.1634
  H  H24  1  0.263200  0.571400  0.012670  1.0  0.1479
  H  H25  1  0.667200  0.000900  0.442600  1.0  0.1902
  H  H26  1  0.806200  0.131400  0.407900  1.0  0.3359
  H  H27  1  0.104500  0.995500  0.776400  1.0  0.1962
  H  H28  1  0.164500  0.165400  0.771600  1.0  0.319
  H  H29  1  0.742900  0.309200  0.683500  1.0  0.164
  H  H30  1  0.691800  0.428600  0.654000  1.0  0.1475
  H  H31  1  0.333700  0.332800  0.109270  1.0  0.1895
  H  H32  1  0.325200  0.193800  0.074570  1.0  0.3354
  H  H33  1  0.891000  0.895500  0.443070  1.0  0.195
  H  H34  1  0.000900  0.835500  0.438270  1.0  0.321
  H  H35  1  0.566300  0.257100  0.350170  1.0  0.1645
  H  H36  1  0.736800  0.308200  0.320670  1.0  0.1508
  H  H37  1  0.999100  0.666300  0.775930  1.0  0.1964
  H  H38  1  0.868600  0.674800  0.741230  1.0  0.3362
  H  H39  1  0.004500  0.109000  0.109730  1.0  0.1953
  H  H40  1  0.834600  0.999100  0.104930  1.0  0.3161
  H  H41  1  0.690800  0.433700  0.016830  1.0  0.1627
  H  H42  1  0.571400  0.263200  0.987330  1.0  0.1479
  C  C43  1  0.204400  0.765700  0.506000  1.0  0.6366
  C  C44  1  0.303500  0.729600  0.417800  1.0  0.369
  C  C45  1  0.320300  0.675100  0.350100  1.0  -0.4102
  C  C46  1  0.205800  0.506800  0.333800  1.0  0.2524
  C  C47  1  0.099900  0.278800  0.290000  1.0  0.5298
  C  C48  1  0.234300  0.438700  0.839330  1.0  0.6352
  C  C49  1  0.270400  0.573900  0.751130  1.0  0.3685
  C  C50  1  0.324900  0.645200  0.683430  1.0  -0.4101
  C  C51  1  0.493200  0.699000  0.667130  1.0  0.2499
  C  C52  1  0.721200  0.821100  0.623330  1.0  0.5313
  C  C53  1  0.561300  0.795600  0.172670  1.0  0.6355
  C  C54  1  0.426100  0.696500  0.084470  1.0  0.3684
  C  C55  1  0.354800  0.679700  0.016770  1.0  -0.4084
  C  C56  1  0.301000  0.794200  0.000470  1.0  0.2519
  C  C57  1  0.178900  0.900100  0.956670  1.0  0.5291
  C  C58  1  0.765700  0.204400  0.494000  1.0  0.6356
  C  C59  1  0.729600  0.303500  0.582200  1.0  0.369
  C  C60  1  0.675100  0.320300  0.649900  1.0  -0.4096
  C  C61  1  0.506800  0.205800  0.666200  1.0  0.2523
  C  C62  1  0.278800  0.099900  0.710000  1.0  0.5295
  C  C63  1  0.438700  0.234300  0.160670  1.0  0.6362
  C  C64  1  0.573900  0.270400  0.248870  1.0  0.3696
  C  C65  1  0.645200  0.324900  0.316570  1.0  -0.4102
  C  C66  1  0.699000  0.493200  0.332870  1.0  0.2526
  C  C67  1  0.821100  0.721200  0.376670  1.0  0.5304
  C  C68  1  0.795600  0.561300  0.827330  1.0  0.6351
  C  C69  1  0.696500  0.426100  0.915530  1.0  0.3688
  C  C70  1  0.679700  0.354800  0.983230  1.0  -0.4113
  C  C71  1  0.794200  0.301000  0.999530  1.0  0.2502
  C  C72  1  0.900100  0.178900  0.043330  1.0  0.5314
  N  N73  1  0.361300  0.849200  0.511700  1.0  -0.3288
  N  N74  1  0.426400  0.825800  0.453700  1.0  -0.3398
  N  N75  1  0.161500  0.689300  0.447600  1.0  -0.4955
  N  N76  1  0.098900  0.761700  0.551200  1.0  -0.6505
  N  N77  1  0.240200  0.417700  0.292900  1.0  -0.5218
  N  N78  1  0.057900  0.427300  0.354800  1.0  -0.2486
  N  N79  1  0.986000  0.275700  0.326900  1.0  -0.3216
  N  N80  1  0.082400  0.151100  0.253400  1.0  -0.6698
  N  N81  1  0.150800  0.512100  0.845030  1.0  -0.3292
  N  N82  1  0.174200  0.600600  0.787030  1.0  -0.3379
  N  N83  1  0.310700  0.472200  0.780930  1.0  -0.4947
  N  N84  1  0.238300  0.337200  0.884530  1.0  -0.6505
  N  N85  1  0.582300  0.822500  0.626230  1.0  -0.523
  N  N86  1  0.572700  0.630600  0.688130  1.0  -0.2497
  N  N87  1  0.724300  0.710300  0.660230  1.0  -0.3197
  N  N88  1  0.848900  0.931300  0.586730  1.0  -0.6709
  N  N89  1  0.487900  0.638700  0.178370  1.0  -0.3292
  N  N90  1  0.399400  0.573600  0.120370  1.0  -0.34
  N  N91  1  0.527800  0.838500  0.114270  1.0  -0.4946
  N  N92  1  0.662800  0.901100  0.217870  1.0  -0.6502
  N  N93  1  0.177500  0.759800  0.959570  1.0  -0.5215
  N  N94  1  0.369400  0.942100  0.021470  1.0  -0.2495
  N  N95  1  0.289700  0.014000  0.993570  1.0  -0.3228
  N  N96  1  0.068700  0.917600  0.920070  1.0  -0.672
  N  N97  1  0.849200  0.361300  0.488300  1.0  -0.3298
  N  N98  1  0.825800  0.426400  0.546300  1.0  -0.3401
  N  N99  1  0.689300  0.161500  0.552400  1.0  -0.4944
  N  N100  1  0.761700  0.098900  0.448800  1.0  -0.6476
  N  N101  1  0.417700  0.240200  0.707100  1.0  -0.5221
  N  N102  1  0.427300  0.057900  0.645200  1.0  -0.2496
  N  N103  1  0.275700  0.986000  0.673100  1.0  -0.3216
  N  N104  1  0.151100  0.082400  0.746600  1.0  -0.6724
  N  N105  1  0.512100  0.150800  0.154970  1.0  -0.3284
  N  N106  1  0.600600  0.174200  0.212970  1.0  -0.3401
  N  N107  1  0.472200  0.310700  0.219070  1.0  -0.4949
  N  N108  1  0.337200  0.238300  0.115470  1.0  -0.6485
  N  N109  1  0.822500  0.582300  0.373770  1.0  -0.5217
  N  N110  1  0.630600  0.572700  0.311870  1.0  -0.2485
  N  N111  1  0.710300  0.724300  0.339770  1.0  -0.3209
  N  N112  1  0.931300  0.848900  0.413270  1.0  -0.673
  N  N113  1  0.638700  0.487900  0.821630  1.0  -0.3288
  N  N114  1  0.573600  0.399400  0.879630  1.0  -0.3386
  N  N115  1  0.838500  0.527800  0.885730  1.0  -0.4944
  N  N116  1  0.901100  0.662800  0.782130  1.0  -0.6491
  N  N117  1  0.759800  0.177500  0.040430  1.0  -0.5223
  N  N118  1  0.942100  0.369400  0.978530  1.0  -0.2497
  N  N119  1  0.014000  0.289700  0.006430  1.0  -0.3191
  N  N120  1  0.917600  0.068700  0.079930  1.0  -0.673
