# generated using pymatgen
data_CuH16(C5N)4
_symmetry_space_group_name_H-M   'P 1'
_cell_length_a   11.47660000
_cell_length_b   11.47660000
_cell_length_c   30.55540000
_cell_angle_alpha   90.00000000
_cell_angle_beta   90.00000000
_cell_angle_gamma   90.00000000
_symmetry_Int_Tables_number   1
_chemical_formula_structural   CuH16(C5N)4
_chemical_formula_sum   'Cu8 H128 C160 N32'
_cell_volume   4024.52346463
_cell_formula_units_Z   8
loop_
 _symmetry_equiv_pos_site_id
 _symmetry_equiv_pos_as_xyz
  1  'x, y, z'
loop_
 _atom_site_type_symbol
 _atom_site_label
 _atom_site_symmetry_multiplicity
 _atom_site_fract_x
 _atom_site_fract_y
 _atom_site_fract_z
 _atom_site_occupancy
 _atom_site_charge
  Cu  Cu1  1  0.750000  0.250000  0.500000  1.0  0.4592
  Cu  Cu2  1  0.750000  0.250000  0.000000  1.0  0.4592
  Cu  Cu3  1  0.250000  0.750000  0.250000  1.0  0.3507
  Cu  Cu4  1  0.250000  0.750000  0.750000  1.0  0.3507
  Cu  Cu5  1  0.250000  0.750000  0.500000  1.0  0.4592
  Cu  Cu6  1  0.250000  0.750000  0.000000  1.0  0.4592
  Cu  Cu7  1  0.750000  0.250000  0.250000  1.0  0.3507
  Cu  Cu8  1  0.750000  0.250000  0.750000  1.0  0.3507
  H  H9  1  0.100900  0.100300  0.327200  1.0  0.1068
  H  H10  1  0.898700  0.887900  0.426800  1.0  0.1118
  H  H11  1  0.801000  0.994100  0.478500  1.0  0.059
  H  H12  1  0.195400  0.995800  0.274100  1.0  0.0699
  H  H13  1  0.004000  0.796700  0.383400  1.0  0.0934
  H  H14  1  0.939500  0.283900  0.436100  1.0  0.0497
  H  H15  1  0.039000  0.187000  0.382600  1.0  0.1029
  H  H16  1  0.103900  0.700200  0.328500  1.0  0.0583
  H  H17  1  0.399100  0.399700  0.327200  1.0  0.1071
  H  H18  1  0.601300  0.612100  0.426800  1.0  0.1105
  H  H19  1  0.699000  0.505900  0.478500  1.0  0.0587
  H  H20  1  0.304600  0.504200  0.274100  1.0  0.0697
  H  H21  1  0.496000  0.703300  0.383400  1.0  0.0935
  H  H22  1  0.560500  0.216100  0.436100  1.0  0.05
  H  H23  1  0.461000  0.313000  0.382600  1.0  0.1027
  H  H24  1  0.396100  0.799800  0.328500  1.0  0.0577
  H  H25  1  0.600300  0.600900  0.172800  1.0  0.1063
  H  H26  1  0.387900  0.398700  0.073200  1.0  0.11
  H  H27  1  0.494100  0.301000  0.021500  1.0  0.0584
  H  H28  1  0.495800  0.695400  0.225900  1.0  0.0689
  H  H29  1  0.296700  0.504000  0.116600  1.0  0.0925
  H  H30  1  0.783900  0.439500  0.063900  1.0  0.049
  H  H31  1  0.687000  0.539000  0.117400  1.0  0.1032
  H  H32  1  0.200200  0.603900  0.171500  1.0  0.0592
  H  H33  1  0.899700  0.899100  0.172800  1.0  0.1062
  H  H34  1  0.112100  0.101300  0.073200  1.0  0.1102
  H  H35  1  0.005900  0.199000  0.021500  1.0  0.0583
  H  H36  1  0.004200  0.804600  0.225900  1.0  0.0697
  H  H37  1  0.203300  0.996000  0.116600  1.0  0.0926
  H  H38  1  0.716100  0.060500  0.063900  1.0  0.0487
  H  H39  1  0.813000  0.961000  0.117400  1.0  0.1033
  H  H40  1  0.299800  0.896100  0.171500  1.0  0.057
  H  H41  1  0.600300  0.899100  0.672800  1.0  0.1066
  H  H42  1  0.387900  0.101300  0.573200  1.0  0.1102
  H  H43  1  0.494100  0.199000  0.521500  1.0  0.0586
  H  H44  1  0.495800  0.804600  0.725900  1.0  0.0694
  H  H45  1  0.296700  0.996000  0.616600  1.0  0.0924
  H  H46  1  0.783900  0.060500  0.563900  1.0  0.0489
  H  H47  1  0.687000  0.961000  0.617400  1.0  0.1032
  H  H48  1  0.200200  0.896100  0.671500  1.0  0.0596
  H  H49  1  0.899700  0.600900  0.672800  1.0  0.1061
  H  H50  1  0.112100  0.398700  0.573200  1.0  0.1098
  H  H51  1  0.005900  0.301000  0.521500  1.0  0.0583
  H  H52  1  0.004200  0.695400  0.725900  1.0  0.0695
  H  H53  1  0.203300  0.504000  0.616600  1.0  0.0927
  H  H54  1  0.716100  0.439500  0.563900  1.0  0.0492
  H  H55  1  0.813000  0.539000  0.617400  1.0  0.1035
  H  H56  1  0.299800  0.603900  0.671500  1.0  0.057
  H  H57  1  0.100900  0.399700  0.827200  1.0  0.1069
  H  H58  1  0.898700  0.612100  0.926800  1.0  0.1105
  H  H59  1  0.801000  0.505900  0.978500  1.0  0.0588
  H  H60  1  0.195400  0.504200  0.774100  1.0  0.07
  H  H61  1  0.004000  0.703300  0.883400  1.0  0.093
  H  H62  1  0.939500  0.216100  0.936100  1.0  0.0503
  H  H63  1  0.039000  0.313000  0.882600  1.0  0.1028
  H  H64  1  0.103900  0.799800  0.828500  1.0  0.0575
  H  H65  1  0.399100  0.100300  0.827200  1.0  0.107
  H  H66  1  0.601300  0.887900  0.926800  1.0  0.1118
  H  H67  1  0.699000  0.994100  0.978500  1.0  0.0591
  H  H68  1  0.304600  0.995800  0.774100  1.0  0.0699
  H  H69  1  0.496000  0.796700  0.883400  1.0  0.0936
  H  H70  1  0.560500  0.283900  0.936100  1.0  0.0493
  H  H71  1  0.461000  0.187000  0.882600  1.0  0.1029
  H  H72  1  0.396100  0.700200  0.828500  1.0  0.0582
  H  H73  1  0.399700  0.100900  0.327200  1.0  0.1068
  H  H74  1  0.612100  0.898700  0.426800  1.0  0.1097
  H  H75  1  0.505900  0.801000  0.478500  1.0  0.0586
  H  H76  1  0.504200  0.195400  0.274100  1.0  0.0696
  H  H77  1  0.703300  0.004000  0.383400  1.0  0.0928
  H  H78  1  0.216100  0.939500  0.436100  1.0  0.049
  H  H79  1  0.313000  0.039000  0.382600  1.0  0.1035
  H  H80  1  0.799800  0.103900  0.328500  1.0  0.0566
  H  H81  1  0.100300  0.399100  0.327200  1.0  0.1069
  H  H82  1  0.887900  0.601300  0.426800  1.0  0.1099
  H  H83  1  0.994100  0.699000  0.478500  1.0  0.0587
  H  H84  1  0.995800  0.304600  0.274100  1.0  0.0698
  H  H85  1  0.796700  0.496000  0.383400  1.0  0.092
  H  H86  1  0.283900  0.560500  0.436100  1.0  0.049
  H  H87  1  0.187000  0.461000  0.382600  1.0  0.1028
  H  H88  1  0.700200  0.396100  0.328500  1.0  0.0593
  H  H89  1  0.899100  0.600300  0.172800  1.0  0.106
  H  H90  1  0.101300  0.387900  0.073200  1.0  0.1117
  H  H91  1  0.199000  0.494100  0.021500  1.0  0.0587
  H  H92  1  0.804600  0.495800  0.225900  1.0  0.0698
  H  H93  1  0.996000  0.296700  0.116600  1.0  0.0927
  H  H94  1  0.060500  0.783900  0.063900  1.0  0.0493
  H  H95  1  0.961000  0.687000  0.117400  1.0  0.103
  H  H96  1  0.896100  0.200200  0.171500  1.0  0.0585
  H  H97  1  0.600900  0.899700  0.172800  1.0  0.1069
  H  H98  1  0.398700  0.112100  0.073200  1.0  0.1108
  H  H99  1  0.301000  0.005900  0.021500  1.0  0.0587
  H  H100  1  0.695400  0.004200  0.225900  1.0  0.0699
  H  H101  1  0.504000  0.203300  0.116600  1.0  0.0928
  H  H102  1  0.439500  0.716100  0.063900  1.0  0.0501
  H  H103  1  0.539000  0.813000  0.117400  1.0  0.1031
  H  H104  1  0.603900  0.299800  0.171500  1.0  0.058
  H  H105  1  0.899100  0.899700  0.672800  1.0  0.1069
  H  H106  1  0.101300  0.112100  0.573200  1.0  0.1109
  H  H107  1  0.199000  0.005900  0.521500  1.0  0.0588
  H  H108  1  0.804600  0.004200  0.725900  1.0  0.0697
  H  H109  1  0.996000  0.203300  0.616600  1.0  0.0927
  H  H110  1  0.060500  0.716100  0.563900  1.0  0.0494
  H  H111  1  0.961000  0.813000  0.617400  1.0  0.103
  H  H112  1  0.896100  0.299800  0.671500  1.0  0.0579
  H  H113  1  0.600900  0.600300  0.672800  1.0  0.1059
  H  H114  1  0.398700  0.387900  0.573200  1.0  0.1117
  H  H115  1  0.301000  0.494100  0.521500  1.0  0.0585
  H  H116  1  0.695400  0.495800  0.725900  1.0  0.0697
  H  H117  1  0.504000  0.296700  0.616600  1.0  0.0927
  H  H118  1  0.439500  0.783900  0.563900  1.0  0.0499
  H  H119  1  0.539000  0.687000  0.617400  1.0  0.1029
  H  H120  1  0.603900  0.200200  0.671500  1.0  0.0587
  H  H121  1  0.399700  0.399100  0.827200  1.0  0.1069
  H  H122  1  0.612100  0.601300  0.926800  1.0  0.1099
  H  H123  1  0.505900  0.699000  0.978500  1.0  0.0582
  H  H124  1  0.504200  0.304600  0.774100  1.0  0.0697
  H  H125  1  0.703300  0.496000  0.883400  1.0  0.0924
  H  H126  1  0.216100  0.560500  0.936100  1.0  0.0489
  H  H127  1  0.313000  0.461000  0.882600  1.0  0.1031
  H  H128  1  0.799800  0.396100  0.828500  1.0  0.0566
  H  H129  1  0.100300  0.100900  0.827200  1.0  0.1066
  H  H130  1  0.887900  0.898700  0.926800  1.0  0.1099
  H  H131  1  0.994100  0.801000  0.978500  1.0  0.0589
  H  H132  1  0.995800  0.195400  0.774100  1.0  0.0694
  H  H133  1  0.796700  0.004000  0.883400  1.0  0.0925
  H  H134  1  0.283900  0.939500  0.936100  1.0  0.0488
  H  H135  1  0.187000  0.039000  0.882600  1.0  0.1031
  H  H136  1  0.700200  0.103900  0.828500  1.0  0.0588
  C  C137  1  0.100700  0.017600  0.328510  1.0  -0.2408
  C  C138  1  0.907600  0.970200  0.427600  1.0  -0.2251
  C  C139  1  0.849200  0.034400  0.458240  1.0  0.1453
  C  C140  1  0.157300  0.954800  0.297000  1.0  0.1488
  C  C141  1  0.044000  0.840000  0.361620  1.0  -0.2122
  C  C142  1  0.928900  0.202100  0.433710  1.0  0.1505
  C  C143  1  0.989800  0.144300  0.401830  1.0  -0.2278
  C  C144  1  0.980900  0.026100  0.397190  1.0  0.0548
  C  C145  1  0.103900  0.782900  0.328620  1.0  0.1522
  C  C146  1  0.042800  0.961500  0.362560  1.0  0.0809
  C  C147  1  0.399300  0.482400  0.328510  1.0  -0.2402
  C  C148  1  0.592400  0.529800  0.427600  1.0  -0.2248
  C  C149  1  0.650800  0.465600  0.458240  1.0  0.1452
  C  C150  1  0.342700  0.545200  0.297000  1.0  0.1482
  C  C151  1  0.456000  0.660000  0.361620  1.0  -0.2139
  C  C152  1  0.571100  0.297900  0.433710  1.0  0.1495
  C  C153  1  0.510200  0.355700  0.401830  1.0  -0.2273
  C  C154  1  0.519100  0.473900  0.397190  1.0  0.0547
  C  C155  1  0.396100  0.717100  0.328620  1.0  0.15
  C  C156  1  0.457200  0.538500  0.362560  1.0  0.0819
  C  C157  1  0.517600  0.600700  0.171490  1.0  -0.2432
  C  C158  1  0.470200  0.407600  0.072400  1.0  -0.2263
  C  C159  1  0.534400  0.349200  0.041760  1.0  0.1461
  C  C160  1  0.454800  0.657300  0.203000  1.0  0.1501
  C  C161  1  0.340000  0.544000  0.138380  1.0  -0.2108
  C  C162  1  0.702100  0.428900  0.066290  1.0  0.151
  C  C163  1  0.644300  0.489800  0.098170  1.0  -0.2255
  C  C164  1  0.526100  0.480900  0.102810  1.0  0.0547
  C  C165  1  0.282900  0.603900  0.171380  1.0  0.1503
  C  C166  1  0.461500  0.542800  0.137440  1.0  0.0846
  C  C167  1  0.982400  0.899300  0.171490  1.0  -0.2413
  C  C168  1  0.029800  0.092400  0.072400  1.0  -0.226
  C  C169  1  0.965600  0.150800  0.041760  1.0  0.1446
  C  C170  1  0.045200  0.842700  0.203000  1.0  0.1501
  C  C171  1  0.160000  0.956000  0.138380  1.0  -0.2102
  C  C172  1  0.797900  0.071100  0.066290  1.0  0.1501
  C  C173  1  0.855700  0.010200  0.098170  1.0  -0.226
  C  C174  1  0.973900  0.019100  0.102810  1.0  0.0554
  C  C175  1  0.217100  0.896100  0.171380  1.0  0.1499
  C  C176  1  0.038500  0.957200  0.137440  1.0  0.0848
  C  C177  1  0.517600  0.899300  0.671490  1.0  -0.2433
  C  C178  1  0.470200  0.092400  0.572400  1.0  -0.2255
  C  C179  1  0.534400  0.150800  0.541760  1.0  0.1462
  C  C180  1  0.454800  0.842700  0.703000  1.0  0.1502
  C  C181  1  0.340000  0.956000  0.638380  1.0  -0.2105
  C  C182  1  0.702100  0.071100  0.566290  1.0  0.1506
  C  C183  1  0.644300  0.010200  0.598170  1.0  -0.2255
  C  C184  1  0.526100  0.019100  0.602810  1.0  0.0551
  C  C185  1  0.282900  0.896100  0.671380  1.0  0.1503
  C  C186  1  0.461500  0.957200  0.637440  1.0  0.085
  C  C187  1  0.982400  0.600700  0.671490  1.0  -0.2409
  C  C188  1  0.029800  0.407600  0.572400  1.0  -0.2267
  C  C189  1  0.965600  0.349200  0.541760  1.0  0.1448
  C  C190  1  0.045200  0.657300  0.703000  1.0  0.15
  C  C191  1  0.160000  0.544000  0.638380  1.0  -0.2104
  C  C192  1  0.797900  0.428900  0.566290  1.0  0.1504
  C  C193  1  0.855700  0.489800  0.598170  1.0  -0.2265
  C  C194  1  0.973900  0.480900  0.602810  1.0  0.0551
  C  C195  1  0.217100  0.603900  0.671380  1.0  0.1493
  C  C196  1  0.038500  0.542800  0.637440  1.0  0.0844
  C  C197  1  0.100700  0.482400  0.828510  1.0  -0.2404
  C  C198  1  0.907600  0.529800  0.927600  1.0  -0.225
  C  C199  1  0.849200  0.465600  0.958240  1.0  0.1449
  C  C200  1  0.157300  0.545200  0.797000  1.0  0.1486
  C  C201  1  0.044000  0.660000  0.861620  1.0  -0.2121
  C  C202  1  0.928900  0.297900  0.933710  1.0  0.15
  C  C203  1  0.989800  0.355700  0.901830  1.0  -0.2271
  C  C204  1  0.980900  0.473900  0.897190  1.0  0.0552
  C  C205  1  0.103900  0.717100  0.828620  1.0  0.1505
  C  C206  1  0.042800  0.538500  0.862560  1.0  0.081
  C  C207  1  0.399300  0.017600  0.828510  1.0  -0.2413
  C  C208  1  0.592400  0.970200  0.927600  1.0  -0.2253
  C  C209  1  0.650800  0.034400  0.958240  1.0  0.1455
  C  C210  1  0.342700  0.954800  0.797000  1.0  0.1484
  C  C211  1  0.456000  0.840000  0.861620  1.0  -0.2133
  C  C212  1  0.571100  0.202100  0.933710  1.0  0.1496
  C  C213  1  0.510200  0.144300  0.901830  1.0  -0.2275
  C  C214  1  0.519100  0.026100  0.897190  1.0  0.0545
  C  C215  1  0.396100  0.782900  0.828620  1.0  0.1525
  C  C216  1  0.457200  0.961500  0.862560  1.0  0.0818
  C  C217  1  0.482400  0.100700  0.328510  1.0  -0.2413
  C  C218  1  0.529800  0.907600  0.427600  1.0  -0.2263
  C  C219  1  0.465600  0.849200  0.458240  1.0  0.1451
  C  C220  1  0.545200  0.157300  0.297000  1.0  0.1499
  C  C221  1  0.660000  0.044000  0.361620  1.0  -0.2105
  C  C222  1  0.297900  0.928900  0.433710  1.0  0.1503
  C  C223  1  0.355700  0.989800  0.401830  1.0  -0.2264
  C  C224  1  0.473900  0.980900  0.397190  1.0  0.055
  C  C225  1  0.717100  0.103900  0.328620  1.0  0.149
  C  C226  1  0.538500  0.042800  0.362560  1.0  0.0839
  C  C227  1  0.017600  0.399300  0.328510  1.0  -0.2438
  C  C228  1  0.970200  0.592400  0.427600  1.0  -0.2254
  C  C229  1  0.034400  0.650800  0.458240  1.0  0.1465
  C  C230  1  0.954800  0.342700  0.297000  1.0  0.1498
  C  C231  1  0.840000  0.456000  0.361620  1.0  -0.2104
  C  C232  1  0.202100  0.571100  0.433710  1.0  0.1509
  C  C233  1  0.144300  0.510200  0.401830  1.0  -0.2253
  C  C234  1  0.026100  0.519100  0.397190  1.0  0.0551
  C  C235  1  0.782900  0.396100  0.328620  1.0  0.1505
  C  C236  1  0.961500  0.457200  0.362560  1.0  0.0846
  C  C237  1  0.899300  0.517600  0.171490  1.0  -0.2411
  C  C238  1  0.092400  0.470200  0.072400  1.0  -0.2261
  C  C239  1  0.150800  0.534400  0.041760  1.0  0.1447
  C  C240  1  0.842700  0.454800  0.203000  1.0  0.148
  C  C241  1  0.956000  0.340000  0.138380  1.0  -0.2131
  C  C242  1  0.071100  0.702100  0.066290  1.0  0.1496
  C  C243  1  0.010200  0.644300  0.098170  1.0  -0.2276
  C  C244  1  0.019100  0.526100  0.102810  1.0  0.0544
  C  C245  1  0.896100  0.282900  0.171380  1.0  0.1525
  C  C246  1  0.957200  0.461500  0.137440  1.0  0.082
  C  C247  1  0.600700  0.982400  0.171490  1.0  -0.2396
  C  C248  1  0.407600  0.029800  0.072400  1.0  -0.2251
  C  C249  1  0.349200  0.965600  0.041760  1.0  0.145
  C  C250  1  0.657300  0.045200  0.203000  1.0  0.1494
  C  C251  1  0.544000  0.160000  0.138380  1.0  -0.2123
  C  C252  1  0.428900  0.797900  0.066290  1.0  0.1503
  C  C253  1  0.489800  0.855700  0.098170  1.0  -0.227
  C  C254  1  0.480900  0.973900  0.102810  1.0  0.0552
  C  C255  1  0.603900  0.217100  0.171380  1.0  0.1505
  C  C256  1  0.542800  0.038500  0.137440  1.0  0.0815
  C  C257  1  0.899300  0.982400  0.671490  1.0  -0.2395
  C  C258  1  0.092400  0.029800  0.572400  1.0  -0.2253
  C  C259  1  0.150800  0.965600  0.541760  1.0  0.1449
  C  C260  1  0.842700  0.045200  0.703000  1.0  0.1484
  C  C261  1  0.956000  0.160000  0.638380  1.0  -0.2134
  C  C262  1  0.071100  0.797900  0.566290  1.0  0.1495
  C  C263  1  0.010200  0.855700  0.598170  1.0  -0.2274
  C  C264  1  0.019100  0.973900  0.602810  1.0  0.0547
  C  C265  1  0.896100  0.217100  0.671380  1.0  0.15
  C  C266  1  0.957200  0.038500  0.637440  1.0  0.0822
  C  C267  1  0.600700  0.517600  0.671490  1.0  -0.2409
  C  C268  1  0.407600  0.470200  0.572400  1.0  -0.2255
  C  C269  1  0.349200  0.534400  0.541760  1.0  0.145
  C  C270  1  0.657300  0.454800  0.703000  1.0  0.1489
  C  C271  1  0.544000  0.340000  0.638380  1.0  -0.2127
  C  C272  1  0.428900  0.702100  0.566290  1.0  0.1503
  C  C273  1  0.489800  0.644300  0.598170  1.0  -0.2278
  C  C274  1  0.480900  0.526100  0.602810  1.0  0.0549
  C  C275  1  0.603900  0.282900  0.671380  1.0  0.1522
  C  C276  1  0.542800  0.461500  0.637440  1.0  0.0814
  C  C277  1  0.482400  0.399300  0.828510  1.0  -0.2416
  C  C278  1  0.529800  0.592400  0.927600  1.0  -0.2256
  C  C279  1  0.465600  0.650800  0.958240  1.0  0.1452
  C  C280  1  0.545200  0.342700  0.797000  1.0  0.1496
  C  C281  1  0.660000  0.456000  0.861620  1.0  -0.2103
  C  C282  1  0.297900  0.571100  0.933710  1.0  0.1504
  C  C283  1  0.355700  0.510200  0.901830  1.0  -0.2258
  C  C284  1  0.473900  0.519100  0.897190  1.0  0.0554
  C  C285  1  0.717100  0.396100  0.828620  1.0  0.1502
  C  C286  1  0.538500  0.457200  0.862560  1.0  0.0844
  C  C287  1  0.017600  0.100700  0.828510  1.0  -0.2439
  C  C288  1  0.970200  0.907600  0.927600  1.0  -0.226
  C  C289  1  0.034400  0.849200  0.958240  1.0  0.1463
  C  C290  1  0.954800  0.157300  0.797000  1.0  0.1499
  C  C291  1  0.840000  0.044000  0.861620  1.0  -0.2106
  C  C292  1  0.202100  0.928900  0.933710  1.0  0.151
  C  C293  1  0.144300  0.989800  0.901830  1.0  -0.2255
  C  C294  1  0.026100  0.980900  0.897190  1.0  0.0547
  C  C295  1  0.782900  0.103900  0.828620  1.0  0.1499
  C  C296  1  0.961500  0.042800  0.862560  1.0  0.0841
  N  N297  1  0.855800  0.151000  0.461550  1.0  -0.3563
  N  N298  1  0.161500  0.838300  0.296950  1.0  -0.3249
  N  N299  1  0.644200  0.349000  0.461550  1.0  -0.3555
  N  N300  1  0.338500  0.661700  0.296950  1.0  -0.3246
  N  N301  1  0.651000  0.355800  0.038450  1.0  -0.3552
  N  N302  1  0.338300  0.661500  0.203050  1.0  -0.323
  N  N303  1  0.849000  0.144200  0.038450  1.0  -0.3553
  N  N304  1  0.161700  0.838500  0.203050  1.0  -0.3228
  N  N305  1  0.651000  0.144200  0.538450  1.0  -0.354
  N  N306  1  0.338300  0.838500  0.703050  1.0  -0.323
  N  N307  1  0.849000  0.355800  0.538450  1.0  -0.3562
  N  N308  1  0.161700  0.661500  0.703050  1.0  -0.3222
  N  N309  1  0.855800  0.349000  0.961550  1.0  -0.3559
  N  N310  1  0.161500  0.661700  0.796950  1.0  -0.3243
  N  N311  1  0.644200  0.151000  0.961550  1.0  -0.3559
  N  N312  1  0.338500  0.838300  0.796950  1.0  -0.3251
  N  N313  1  0.349000  0.855800  0.461550  1.0  -0.3551
  N  N314  1  0.661700  0.161500  0.296950  1.0  -0.3227
  N  N315  1  0.151000  0.644200  0.461550  1.0  -0.3546
  N  N316  1  0.838300  0.338500  0.296950  1.0  -0.3239
  N  N317  1  0.144200  0.651000  0.038450  1.0  -0.3555
  N  N318  1  0.838500  0.338300  0.203050  1.0  -0.324
  N  N319  1  0.355800  0.849000  0.038450  1.0  -0.3568
  N  N320  1  0.661500  0.161700  0.203050  1.0  -0.3241
  N  N321  1  0.144200  0.849000  0.538450  1.0  -0.3568
  N  N322  1  0.838500  0.161700  0.703050  1.0  -0.3246
  N  N323  1  0.355800  0.651000  0.538450  1.0  -0.3556
  N  N324  1  0.661500  0.338300  0.703050  1.0  -0.3237
  N  N325  1  0.349000  0.644200  0.961550  1.0  -0.3558
  N  N326  1  0.661700  0.338500  0.796950  1.0  -0.3234
  N  N327  1  0.151000  0.855800  0.961550  1.0  -0.3541
  N  N328  1  0.838300  0.161500  0.796950  1.0  -0.3232
