# generated using pymatgen
data_Co3H35C49(NO3)4
_symmetry_space_group_name_H-M   'P 1'
_cell_length_a   11.57840000
_cell_length_b   15.30810000
_cell_length_c   19.25800000
_cell_angle_alpha   70.38800000
_cell_angle_beta   76.65900000
_cell_angle_gamma   83.04800000
_symmetry_Int_Tables_number   1
_chemical_formula_structural   Co3H35C49(NO3)4
_chemical_formula_sum   'Co6 H70 C98 N8 O24'
_cell_volume   3125.02470414
_cell_formula_units_Z   2
loop_
 _symmetry_equiv_pos_site_id
 _symmetry_equiv_pos_as_xyz
  1  'x, y, z'
loop_
 _atom_site_type_symbol
 _atom_site_label
 _atom_site_symmetry_multiplicity
 _atom_site_fract_x
 _atom_site_fract_y
 _atom_site_fract_z
 _atom_site_occupancy
 _atom_site_charge
  Co  Co1  1  0.613320  0.271550  0.082280  1.0  0.984
  Co  Co2  1  0.767330  0.508000  0.421770  1.0  0.8385
  Co  Co3  1  0.386680  0.728450  0.917720  1.0  0.9855
  Co  Co4  1  0.232670  0.492000  0.578230  1.0  0.8379
  Co  Co5  1  0.500000  0.500000  0.000000  1.0  0.9458
  Co  Co6  1  0.500000  0.500000  0.500000  1.0  0.9931
  H  H7  1  0.792700  0.701600  0.295900  1.0  0.0747
  H  H8  1  0.928400  0.816500  0.233900  1.0  0.1237
  H  H9  1  0.144300  0.671500  0.372100  1.0  0.1159
  H  H10  1  0.002600  0.562300  0.429100  1.0  0.0704
  H  H11  1  0.101300  0.870100  0.153700  1.0  0.1236
  H  H12  1  0.250100  0.975900  0.094500  1.0  0.112
  H  H13  1  0.371500  0.908900  0.282800  1.0  0.0987
  H  H14  1  0.222100  0.804600  0.346100  1.0  0.1321
  H  H15  1  0.616500  0.928200  0.037200  1.0  0.0925
  H  H16  1  0.494600  0.886000  0.083600  1.0  0.0912
  H  H17  1  0.685200  0.884100  0.151300  1.0  0.1267
  H  H18  1  0.657500  0.798900  0.130900  1.0  0.1111
  H  H19  1  0.567000  0.832700  0.192000  1.0  0.1124
  H  H20  1  0.658100  0.089700  0.042200  1.0  0.1008
  H  H21  1  0.329800  0.284100  0.092500  1.0  0.1075
  H  H22  1  0.184600  0.367600  0.152100  1.0  0.1089
  H  H23  1  0.159600  0.155400  0.344300  1.0  0.1192
  H  H24  1  0.298400  0.069900  0.285000  1.0  0.1097
  H  H25  1  0.991100  0.400400  0.206400  1.0  0.1142
  H  H26  1  0.858500  0.487300  0.268800  1.0  0.0877
  H  H27  1  0.970800  0.357800  0.455500  1.0  0.0788
  H  H28  1  0.110800  0.272100  0.396400  1.0  0.1271
  H  H29  1  0.676400  0.281300  0.823600  1.0  0.1062
  H  H30  1  0.616700  0.329900  0.707400  1.0  0.0941
  H  H31  1  0.312200  0.442500  0.799600  1.0  0.1124
  H  H32  1  0.379500  0.404600  0.911700  1.0  0.1109
  H  H33  1  0.963700  0.344200  0.033800  1.0  0.1068
  H  H34  1  0.842500  0.611600  0.986600  1.0  0.1084
  H  H35  1  0.725600  0.517900  0.782400  1.0  0.1036
  H  H36  1  0.800800  0.494000  0.667400  1.0  0.107
  H  H37  1  0.524200  0.650600  0.587100  1.0  0.0921
  H  H38  1  0.456500  0.679800  0.699100  1.0  0.123
  H  H39  1  0.572200  0.211100  0.528400  1.0  0.1427
  H  H40  1  0.490400  0.289600  0.552800  1.0  0.1455
  H  H41  1  0.573100  0.225300  0.605200  1.0  0.1357
  H  H42  1  0.207300  0.298400  0.704100  1.0  0.0744
  H  H43  1  0.071600  0.183500  0.766100  1.0  0.1238
  H  H44  1  0.855700  0.328500  0.627900  1.0  0.1158
  H  H45  1  0.997400  0.437700  0.570900  1.0  0.0703
  H  H46  1  0.898700  0.129900  0.846300  1.0  0.1231
  H  H47  1  0.749900  0.024100  0.905500  1.0  0.1112
  H  H48  1  0.628500  0.091100  0.717200  1.0  0.0994
  H  H49  1  0.777900  0.195400  0.653900  1.0  0.1317
  H  H50  1  0.383500  0.071800  0.962800  1.0  0.0919
  H  H51  1  0.505400  0.114000  0.916400  1.0  0.0906
  H  H52  1  0.314800  0.115900  0.848700  1.0  0.1278
  H  H53  1  0.342500  0.201100  0.869100  1.0  0.1112
  H  H54  1  0.433000  0.167300  0.808000  1.0  0.1108
  H  H55  1  0.341900  0.910300  0.957800  1.0  0.0998
  H  H56  1  0.670200  0.715900  0.907500  1.0  0.1066
  H  H57  1  0.815400  0.632400  0.847900  1.0  0.1082
  H  H58  1  0.840400  0.844600  0.655700  1.0  0.1191
  H  H59  1  0.701600  0.930100  0.715000  1.0  0.1093
  H  H60  1  0.008900  0.599600  0.793600  1.0  0.1144
  H  H61  1  0.141500  0.512700  0.731200  1.0  0.0881
  H  H62  1  0.029200  0.642200  0.544500  1.0  0.0791
  H  H63  1  0.889200  0.727900  0.603600  1.0  0.1271
  H  H64  1  0.323600  0.718700  0.176400  1.0  0.1063
  H  H65  1  0.383300  0.670100  0.292600  1.0  0.0947
  H  H66  1  0.687800  0.557500  0.200400  1.0  0.1131
  H  H67  1  0.620500  0.595400  0.088300  1.0  0.1103
  H  H68  1  0.036300  0.655800  0.966200  1.0  0.1071
  H  H69  1  0.157500  0.388400  0.013400  1.0  0.1088
  H  H70  1  0.274400  0.482100  0.217600  1.0  0.1037
  H  H71  1  0.199200  0.506000  0.332600  1.0  0.1072
  H  H72  1  0.475800  0.349400  0.412900  1.0  0.0924
  H  H73  1  0.543500  0.320200  0.300900  1.0  0.1221
  H  H74  1  0.427800  0.788900  0.471600  1.0  0.1429
  H  H75  1  0.509600  0.710400  0.447200  1.0  0.1455
  H  H76  1  0.426900  0.774700  0.394800  1.0  0.1337
  C  C77  1  0.864200  0.695300  0.311800  1.0  0.1735
  C  C78  1  0.946500  0.765200  0.273100  1.0  -0.1961
  C  C79  1  0.054200  0.756100  0.294600  1.0  0.1108
  C  C80  1  0.073900  0.679400  0.354900  1.0  -0.1928
  C  C81  1  0.986800  0.614000  0.389500  1.0  0.173
  C  C82  1  0.147000  0.825100  0.255900  1.0  0.0452
  C  C83  1  0.154800  0.877500  0.180400  1.0  -0.1176
  C  C84  1  0.244300  0.941600  0.145100  1.0  -0.0753
  C  C85  1  0.322600  0.954500  0.183300  1.0  0.0352
  C  C86  1  0.315900  0.901900  0.257300  1.0  -0.1123
  C  C87  1  0.227400  0.838000  0.295300  1.0  -0.1564
  C  C88  1  0.416500  0.023300  0.145300  1.0  -0.0872
  C  C89  1  0.562300  0.916100  0.085600  1.0  0.0022
  C  C90  1  0.623500  0.852200  0.145300  1.0  -0.3127
  C  C91  1  0.583700  0.083400  0.074100  1.0  0.165
  C  C92  1  0.420600  0.113000  0.144700  1.0  0.0298
  C  C93  1  0.330100  0.168400  0.181000  1.0  -0.0302
  C  C94  1  0.295100  0.257300  0.142900  1.0  -0.0875
  C  C95  1  0.208000  0.307900  0.179100  1.0  -0.1212
  C  C96  1  0.155600  0.270800  0.254600  1.0  0.0571
  C  C97  1  0.192500  0.181200  0.293500  1.0  -0.1182
  C  C98  1  0.276500  0.130100  0.258200  1.0  -0.0913
  C  C99  1  0.067200  0.326600  0.293100  1.0  0.0754
  C  C100  1  0.989400  0.390900  0.256900  1.0  -0.1609
  C  C101  1  0.907600  0.442100  0.295400  1.0  0.1709
  C  C102  1  0.974500  0.366400  0.404900  1.0  0.1489
  C  C103  1  0.059400  0.314600  0.369600  1.0  -0.1784
  C  C104  1  0.578300  0.319300  0.948200  1.0  0.6465
  C  C105  1  0.535300  0.342800  0.876600  1.0  -0.1406
  C  C106  1  0.605800  0.316400  0.817600  1.0  -0.0405
  C  C107  1  0.568700  0.343800  0.748600  1.0  -0.0405
  C  C108  1  0.459900  0.391800  0.742200  1.0  -0.1437
  C  C109  1  0.386600  0.412900  0.803600  1.0  -0.0319
  C  C110  1  0.426300  0.389200  0.870900  1.0  -0.0561
  C  C111  1  0.421700  0.423500  0.667700  1.0  0.6662
  C  C112  1  0.759000  0.442100  0.022300  1.0  0.6913
  C  C113  1  0.884300  0.472700  0.010800  1.0  -0.1284
  C  C114  1  0.978500  0.406800  0.019800  1.0  -0.0313
  C  C115  1  0.905000  0.567100  0.991600  1.0  -0.0481
  C  C116  1  0.531800  0.612200  0.829800  1.0  0.6837
  C  C117  1  0.583600  0.598500  0.753500  1.0  -0.1039
  C  C118  1  0.685900  0.544800  0.742900  1.0  -0.0114
  C  C119  1  0.731000  0.530000  0.674100  1.0  -0.068
  C  C120  1  0.669800  0.570100  0.614900  1.0  -0.1335
  C  C121  1  0.565500  0.624900  0.625900  1.0  -0.0234
  C  C122  1  0.523800  0.641100  0.693000  1.0  -0.0586
  C  C123  1  0.711700  0.548300  0.542500  1.0  0.6343
  C  C124  1  0.663600  0.322900  0.515200  1.0  0.7006
  C  C125  1  0.566000  0.256200  0.553900  1.0  -0.3977
  C  C126  1  0.135800  0.304700  0.688200  1.0  0.1733
  C  C127  1  0.053500  0.234800  0.726900  1.0  -0.195
  C  C128  1  0.945800  0.243900  0.705400  1.0  0.1102
  C  C129  1  0.926100  0.320600  0.645100  1.0  -0.1917
  C  C130  1  0.013200  0.386000  0.610500  1.0  0.1722
  C  C131  1  0.853000  0.174900  0.744100  1.0  0.0442
  C  C132  1  0.845200  0.122500  0.819600  1.0  -0.1165
  C  C133  1  0.755700  0.058400  0.854900  1.0  -0.0762
  C  C134  1  0.677400  0.045500  0.816700  1.0  0.0366
  C  C135  1  0.684100  0.098100  0.742700  1.0  -0.1113
  C  C136  1  0.772600  0.162000  0.704700  1.0  -0.1563
  C  C137  1  0.583500  0.976700  0.854700  1.0  -0.0861
  C  C138  1  0.437700  0.083900  0.914400  1.0  0.0013
  C  C139  1  0.376500  0.147800  0.854700  1.0  -0.3123
  C  C140  1  0.416300  0.916600  0.925900  1.0  0.164
  C  C141  1  0.579400  0.887000  0.855300  1.0  0.0292
  C  C142  1  0.669900  0.831600  0.819000  1.0  -0.0279
  C  C143  1  0.704900  0.742700  0.857100  1.0  -0.086
  C  C144  1  0.792000  0.692100  0.820900  1.0  -0.1219
  C  C145  1  0.844400  0.729200  0.745400  1.0  0.0576
  C  C146  1  0.807500  0.818800  0.706500  1.0  -0.1186
  C  C147  1  0.723500  0.869900  0.741800  1.0  -0.0955
  C  C148  1  0.932800  0.673400  0.706900  1.0  0.0749
  C  C149  1  0.010600  0.609100  0.743100  1.0  -0.1605
  C  C150  1  0.092400  0.557900  0.704600  1.0  0.1711
  C  C151  1  0.025500  0.633600  0.595100  1.0  0.1498
  C  C152  1  0.940600  0.685400  0.630400  1.0  -0.1779
  C  C153  1  0.421700  0.680700  0.051800  1.0  0.6458
  C  C154  1  0.464700  0.657200  0.123400  1.0  -0.1402
  C  C155  1  0.394200  0.683600  0.182400  1.0  -0.0398
  C  C156  1  0.431300  0.656200  0.251400  1.0  -0.0414
  C  C157  1  0.540100  0.608200  0.257800  1.0  -0.1443
  C  C158  1  0.613400  0.587100  0.196400  1.0  -0.0316
  C  C159  1  0.573700  0.610800  0.129100  1.0  -0.0571
  C  C160  1  0.578300  0.576500  0.332300  1.0  0.6673
  C  C161  1  0.241000  0.557900  0.977700  1.0  0.6904
  C  C162  1  0.115700  0.527300  0.989200  1.0  -0.1272
  C  C163  1  0.021500  0.593200  0.980200  1.0  -0.0314
  C  C164  1  0.095000  0.432900  0.008400  1.0  -0.0485
  C  C165  1  0.468200  0.387800  0.170200  1.0  0.6836
  C  C166  1  0.416400  0.401500  0.246500  1.0  -0.1043
  C  C167  1  0.314100  0.455200  0.257100  1.0  -0.0095
  C  C168  1  0.269000  0.470000  0.325900  1.0  -0.0653
  C  C169  1  0.330200  0.429900  0.385100  1.0  -0.1333
  C  C170  1  0.434500  0.375100  0.374100  1.0  -0.0236
  C  C171  1  0.476200  0.358900  0.307000  1.0  -0.0594
  C  C172  1  0.288300  0.451700  0.457500  1.0  0.6331
  C  C173  1  0.336400  0.677100  0.484800  1.0  0.7021
  C  C174  1  0.434000  0.743800  0.446100  1.0  -0.3998
  N  N175  1  0.521200  0.005100  0.099500  1.0  -0.0255
  N  N176  1  0.526200  0.149100  0.100300  1.0  -0.3599
  N  N177  1  0.896700  0.429000  0.369300  1.0  -0.3294
  N  N178  1  0.882300  0.620900  0.369400  1.0  -0.3195
  N  N179  1  0.478800  0.994900  0.900500  1.0  -0.0253
  N  N180  1  0.473800  0.850900  0.899700  1.0  -0.3608
  N  N181  1  0.103300  0.571000  0.630700  1.0  -0.3285
  N  N182  1  0.117700  0.379100  0.630600  1.0  -0.3183
  O  O183  1  0.522800  0.356400  0.998310  1.0  -0.6542
  O  O184  1  0.664600  0.262800  0.962000  1.0  -0.5778
  O  O185  1  0.311600  0.444100  0.669180  1.0  -0.5771
  O  O186  1  0.502600  0.428800  0.609620  1.0  -0.5973
  O  O187  1  0.554500  0.549000  0.886210  1.0  -0.589
  O  O188  1  0.468200  0.686600  0.828600  1.0  -0.6357
  O  O189  1  0.644400  0.577700  0.494000  1.0  -0.6606
  O  O190  1  0.806700  0.503500  0.529430  1.0  -0.5661
  O  O191  1  0.680300  0.503100  0.003800  1.0  -0.5891
  O  O192  1  0.748700  0.356100  0.050100  1.0  -0.6339
  O  O193  1  0.640700  0.408000  0.474170  1.0  -0.6674
  O  O194  1  0.766500  0.294400  0.525100  1.0  -0.5488
  O  O195  1  0.477200  0.643600  0.001690  1.0  -0.6541
  O  O196  1  0.335400  0.737200  0.038000  1.0  -0.5762
  O  O197  1  0.688400  0.555900  0.330820  1.0  -0.5789
  O  O198  1  0.497400  0.571200  0.390380  1.0  -0.5964
  O  O199  1  0.445500  0.451000  0.113790  1.0  -0.5878
  O  O200  1  0.531800  0.313400  0.171400  1.0  -0.6359
  O  O201  1  0.355600  0.422300  0.506000  1.0  -0.6608
  O  O202  1  0.193300  0.496500  0.470570  1.0  -0.566
  O  O203  1  0.319700  0.496900  0.996200  1.0  -0.5886
  O  O204  1  0.251300  0.643900  0.949900  1.0  -0.6343
  O  O205  1  0.359300  0.592000  0.525830  1.0  -0.6683
  O  O206  1  0.233500  0.705600  0.474900  1.0  -0.5522
