# generated using pymatgen
data_Co3H35C49(NO3)4
_symmetry_space_group_name_H-M   'P 1'
_cell_length_a   11.57910000
_cell_length_b   15.26230000
_cell_length_c   19.24830000
_cell_angle_alpha   70.39400000
_cell_angle_beta   76.58700000
_cell_angle_gamma   82.73200000
_symmetry_Int_Tables_number   1
_chemical_formula_structural   Co3H35C49(NO3)4
_chemical_formula_sum   'Co6 H70 C98 N8 O24'
_cell_volume   3112.60575067
_cell_formula_units_Z   2
loop_
 _symmetry_equiv_pos_site_id
 _symmetry_equiv_pos_as_xyz
  1  'x, y, z'
loop_
 _atom_site_type_symbol
 _atom_site_label
 _atom_site_symmetry_multiplicity
 _atom_site_fract_x
 _atom_site_fract_y
 _atom_site_fract_z
 _atom_site_occupancy
 _atom_site_charge
  Co  Co1  1  0.615050  0.269970  0.081870  1.0  0.9906
  Co  Co2  1  0.768560  0.508080  0.421990  1.0  0.8473
  Co  Co3  1  0.384950  0.730030  0.918130  1.0  0.9916
  Co  Co4  1  0.231440  0.491920  0.578010  1.0  0.846
  Co  Co5  1  0.500000  0.500000  0.000000  1.0  0.9504
  Co  Co6  1  0.500000  0.500000  0.500000  1.0  0.9943
  H  H7  1  0.789800  0.705100  0.296200  1.0  0.0754
  H  H8  1  0.926000  0.818200  0.234000  1.0  0.1235
  H  H9  1  0.143500  0.671800  0.372200  1.0  0.1187
  H  H10  1  0.001500  0.563500  0.429500  1.0  0.072
  H  H11  1  0.098300  0.872400  0.153000  1.0  0.1163
  H  H12  1  0.244900  0.977900  0.092600  1.0  0.1089
  H  H13  1  0.372500  0.906400  0.281800  1.0  0.1056
  H  H14  1  0.225100  0.802800  0.342700  1.0  0.1147
  H  H15  1  0.616300  0.925400  0.036300  1.0  0.0898
  H  H16  1  0.494400  0.884300  0.083400  1.0  0.0897
  H  H17  1  0.691800  0.878800  0.146500  1.0  0.1135
  H  H18  1  0.650600  0.793000  0.132900  1.0  0.1126
  H  H19  1  0.570400  0.835700  0.192500  1.0  0.115
  H  H20  1  0.660400  0.085800  0.042100  1.0  0.1031
  H  H21  1  0.330700  0.284600  0.090700  1.0  0.1169
  H  H22  1  0.187900  0.369300  0.150100  1.0  0.0982
  H  H23  1  0.158400  0.154100  0.342200  1.0  0.1219
  H  H24  1  0.298600  0.068500  0.283300  1.0  0.1052
  H  H25  1  0.994800  0.404700  0.204500  1.0  0.1235
  H  H26  1  0.858800  0.488100  0.269800  1.0  0.0894
  H  H27  1  0.973400  0.357700  0.454700  1.0  0.074
  H  H28  1  0.113000  0.271900  0.394500  1.0  0.1221
  H  H29  1  0.678200  0.282900  0.821000  1.0  0.1129
  H  H30  1  0.617500  0.330100  0.707400  1.0  0.0884
  H  H31  1  0.314100  0.443500  0.799900  1.0  0.1038
  H  H32  1  0.379700  0.405800  0.910900  1.0  0.1065
  H  H33  1  0.964500  0.344700  0.031400  1.0  0.1073
  H  H34  1  0.844200  0.612600  0.986700  1.0  0.1081
  H  H35  1  0.723500  0.517000  0.783100  1.0  0.1169
  H  H36  1  0.799700  0.495900  0.667700  1.0  0.0897
  H  H37  1  0.525600  0.653600  0.586100  1.0  0.1112
  H  H38  1  0.454100  0.679000  0.699700  1.0  0.113
  H  H39  1  0.578800  0.209100  0.529600  1.0  0.1356
  H  H40  1  0.493100  0.290800  0.546600  1.0  0.1274
  H  H41  1  0.568000  0.229300  0.605600  1.0  0.1406
  H  H42  1  0.210200  0.294900  0.703800  1.0  0.0751
  H  H43  1  0.074000  0.181800  0.766000  1.0  0.1233
  H  H44  1  0.856500  0.328200  0.627800  1.0  0.1188
  H  H45  1  0.998500  0.436500  0.570500  1.0  0.0718
  H  H46  1  0.901700  0.127600  0.847000  1.0  0.1168
  H  H47  1  0.755100  0.022100  0.907400  1.0  0.1081
  H  H48  1  0.627500  0.093600  0.718200  1.0  0.1055
  H  H49  1  0.774900  0.197200  0.657300  1.0  0.1149
  H  H50  1  0.383700  0.074600  0.963700  1.0  0.0913
  H  H51  1  0.505600  0.115700  0.916600  1.0  0.0894
  H  H52  1  0.308200  0.121200  0.853500  1.0  0.115
  H  H53  1  0.349400  0.207000  0.867100  1.0  0.1151
  H  H54  1  0.429600  0.164300  0.807500  1.0  0.112
  H  H55  1  0.339600  0.914200  0.957900  1.0  0.1024
  H  H56  1  0.669300  0.715400  0.909300  1.0  0.1158
  H  H57  1  0.812100  0.630700  0.849900  1.0  0.0977
  H  H58  1  0.841600  0.845900  0.657800  1.0  0.1215
  H  H59  1  0.701400  0.931500  0.716700  1.0  0.1047
  H  H60  1  0.005200  0.595300  0.795500  1.0  0.1233
  H  H61  1  0.141200  0.511900  0.730200  1.0  0.0891
  H  H62  1  0.026600  0.642300  0.545300  1.0  0.0745
  H  H63  1  0.887000  0.728100  0.605500  1.0  0.122
  H  H64  1  0.321800  0.717100  0.179000  1.0  0.1125
  H  H65  1  0.382500  0.669900  0.292600  1.0  0.0884
  H  H66  1  0.685900  0.556500  0.200100  1.0  0.1043
  H  H67  1  0.620300  0.594200  0.089100  1.0  0.1062
  H  H68  1  0.035500  0.655300  0.968600  1.0  0.1075
  H  H69  1  0.155800  0.387400  0.013300  1.0  0.1085
  H  H70  1  0.276500  0.483000  0.216900  1.0  0.117
  H  H71  1  0.200300  0.504100  0.332300  1.0  0.0898
  H  H72  1  0.474400  0.346400  0.413900  1.0  0.1098
  H  H73  1  0.545900  0.321000  0.300300  1.0  0.1118
  H  H74  1  0.421200  0.790900  0.470400  1.0  0.1368
  H  H75  1  0.506900  0.709200  0.453400  1.0  0.1284
  H  H76  1  0.432000  0.770700  0.394400  1.0  0.1398
  C  C77  1  0.862000  0.698200  0.311300  1.0  0.1699
  C  C78  1  0.944000  0.766700  0.273300  1.0  -0.2024
  C  C79  1  0.052700  0.757300  0.294400  1.0  0.1083
  C  C80  1  0.072900  0.679900  0.355100  1.0  -0.1983
  C  C81  1  0.986300  0.615200  0.389600  1.0  0.1697
  C  C82  1  0.145600  0.826800  0.254800  1.0  0.0274
  C  C83  1  0.152800  0.879500  0.179100  1.0  -0.1074
  C  C84  1  0.241200  0.942500  0.142900  1.0  -0.0888
  C  C85  1  0.324300  0.953300  0.180900  1.0  0.0251
  C  C86  1  0.317200  0.900100  0.255800  1.0  -0.1046
  C  C87  1  0.228900  0.837800  0.292400  1.0  -0.1583
  C  C88  1  0.416600  0.022300  0.143100  1.0  -0.0327
  C  C89  1  0.562600  0.914100  0.084900  1.0  -0.0009
  C  C90  1  0.624400  0.849600  0.144600  1.0  -0.3131
  C  C91  1  0.585400  0.080500  0.073200  1.0  0.1488
  C  C92  1  0.421000  0.110900  0.143100  1.0  0.0538
  C  C93  1  0.330000  0.166300  0.179900  1.0  -0.0283
  C  C94  1  0.295700  0.257900  0.141100  1.0  -0.1173
  C  C95  1  0.210400  0.309000  0.177100  1.0  -0.107
  C  C96  1  0.157200  0.271900  0.253100  1.0  0.0686
  C  C97  1  0.192600  0.180400  0.291700  1.0  -0.1212
  C  C98  1  0.276700  0.128900  0.256300  1.0  -0.0807
  C  C99  1  0.069300  0.327000  0.292300  1.0  0.0998
  C  C100  1  0.992000  0.393400  0.255500  1.0  -0.2012
  C  C101  1  0.909600  0.443200  0.295500  1.0  0.1785
  C  C102  1  0.976900  0.366900  0.404000  1.0  0.1599
  C  C103  1  0.061500  0.314900  0.367900  1.0  -0.1969
  C  C104  1  0.580100  0.319900  0.947300  1.0  0.6561
  C  C105  1  0.536500  0.343400  0.876700  1.0  -0.1387
  C  C106  1  0.606900  0.317700  0.815900  1.0  -0.078
  C  C107  1  0.569300  0.344500  0.748500  1.0  -0.0247
  C  C108  1  0.460400  0.392600  0.741300  1.0  -0.1684
  C  C109  1  0.388600  0.413500  0.803600  1.0  -0.0318
  C  C110  1  0.427100  0.390200  0.870200  1.0  -0.0314
  C  C111  1  0.421600  0.425300  0.667300  1.0  0.6794
  C  C112  1  0.760100  0.442600  0.022500  1.0  0.6929
  C  C113  1  0.884400  0.473800  0.010800  1.0  -0.1365
  C  C114  1  0.979000  0.407300  0.018700  1.0  -0.0393
  C  C115  1  0.906400  0.567400  0.992000  1.0  -0.058
  C  C116  1  0.529500  0.614500  0.829000  1.0  0.6803
  C  C117  1  0.580900  0.601500  0.753100  1.0  -0.1179
  C  C118  1  0.684700  0.545100  0.743300  1.0  -0.0418
  C  C119  1  0.729100  0.531400  0.674700  1.0  -0.0542
  C  C120  1  0.668700  0.570400  0.615740  1.0  -0.1258
  C  C121  1  0.565500  0.626500  0.625500  1.0  -0.0399
  C  C122  1  0.523000  0.641400  0.693500  1.0  -0.0207
  C  C123  1  0.711100  0.549100  0.543100  1.0  0.6372
  C  C124  1  0.667600  0.323000  0.516200  1.0  0.7459
  C  C125  1  0.567800  0.257000  0.552800  1.0  -0.3839
  C  C126  1  0.138000  0.301800  0.688700  1.0  0.1705
  C  C127  1  0.056000  0.233300  0.726700  1.0  -0.2018
  C  C128  1  0.947300  0.242700  0.705600  1.0  0.1074
  C  C129  1  0.927100  0.320100  0.644900  1.0  -0.1968
  C  C130  1  0.013700  0.384800  0.610400  1.0  0.1686
  C  C131  1  0.854400  0.173200  0.745200  1.0  0.0273
  C  C132  1  0.847200  0.120500  0.820900  1.0  -0.1078
  C  C133  1  0.758800  0.057500  0.857100  1.0  -0.0901
  C  C134  1  0.675700  0.046700  0.819100  1.0  0.0259
  C  C135  1  0.682800  0.099900  0.744200  1.0  -0.1025
  C  C136  1  0.771100  0.162200  0.707600  1.0  -0.1585
  C  C137  1  0.583400  0.977700  0.856900  1.0  -0.0328
  C  C138  1  0.437400  0.085900  0.915100  1.0  -0.0015
  C  C139  1  0.375600  0.150400  0.855400  1.0  -0.3133
  C  C140  1  0.414600  0.919500  0.926800  1.0  0.1477
  C  C141  1  0.579000  0.889100  0.856900  1.0  0.0535
  C  C142  1  0.670000  0.833700  0.820100  1.0  -0.028
  C  C143  1  0.704300  0.742100  0.858900  1.0  -0.1165
  C  C144  1  0.789600  0.691000  0.822900  1.0  -0.1072
  C  C145  1  0.842800  0.728100  0.746900  1.0  0.0686
  C  C146  1  0.807400  0.819600  0.708300  1.0  -0.122
  C  C147  1  0.723300  0.871100  0.743700  1.0  -0.0832
  C  C148  1  0.930700  0.673000  0.707700  1.0  0.0994
  C  C149  1  0.008000  0.606600  0.744500  1.0  -0.2018
  C  C150  1  0.090400  0.556800  0.704500  1.0  0.1794
  C  C151  1  0.023100  0.633100  0.596000  1.0  0.1593
  C  C152  1  0.938500  0.685100  0.632100  1.0  -0.1957
  C  C153  1  0.419900  0.680100  0.052700  1.0  0.6542
  C  C154  1  0.463500  0.656600  0.123300  1.0  -0.1381
  C  C155  1  0.393100  0.682300  0.184100  1.0  -0.0771
  C  C156  1  0.430700  0.655500  0.251500  1.0  -0.0247
  C  C157  1  0.539600  0.607400  0.258700  1.0  -0.1693
  C  C158  1  0.611400  0.586500  0.196400  1.0  -0.0322
  C  C159  1  0.572900  0.609800  0.129800  1.0  -0.0326
  C  C160  1  0.578400  0.574700  0.332700  1.0  0.6795
  C  C161  1  0.239900  0.557400  0.977500  1.0  0.6928
  C  C162  1  0.115600  0.526200  0.989200  1.0  -0.136
  C  C163  1  0.021000  0.592700  0.981300  1.0  -0.04
  C  C164  1  0.093600  0.432600  0.008000  1.0  -0.0545
  C  C165  1  0.470500  0.385500  0.171000  1.0  0.6799
  C  C166  1  0.419100  0.398500  0.246900  1.0  -0.1198
  C  C167  1  0.315300  0.454900  0.256700  1.0  -0.041
  C  C168  1  0.270900  0.468600  0.325300  1.0  -0.0522
  C  C169  1  0.331300  0.429600  0.384260  1.0  -0.1256
  C  C170  1  0.434500  0.373500  0.374500  1.0  -0.0401
  C  C171  1  0.477000  0.358600  0.306500  1.0  -0.0222
  C  C172  1  0.288900  0.450900  0.456900  1.0  0.6366
  C  C173  1  0.332400  0.677000  0.483800  1.0  0.7465
  C  C174  1  0.432200  0.743000  0.447200  1.0  -0.3867
  N  N175  1  0.522300  0.003900  0.097800  1.0  0.0205
  N  N176  1  0.527500  0.147500  0.098890  1.0  -0.4023
  N  N177  1  0.900200  0.429500  0.368990  1.0  -0.3226
  N  N178  1  0.882400  0.623000  0.368690  1.0  -0.3318
  N  N179  1  0.477700  0.996100  0.902200  1.0  0.0208
  N  N180  1  0.472500  0.852500  0.901110  1.0  -0.4039
  N  N181  1  0.099800  0.570500  0.631010  1.0  -0.3243
  N  N182  1  0.117600  0.377000  0.631310  1.0  -0.3307
  O  O183  1  0.524300  0.356710  0.998290  1.0  -0.6515
  O  O184  1  0.666667  0.262340  0.961140  1.0  -0.5755
  O  O185  1  0.312500  0.445030  0.667910  1.0  -0.5859
  O  O186  1  0.501800  0.429550  0.609330  1.0  -0.6049
  O  O187  1  0.552400  0.550340  0.886130  1.0  -0.5903
  O  O188  1  0.468700  0.690600  0.827480  1.0  -0.6272
  O  O189  1  0.644100  0.577730  0.493670  1.0  -0.6565
  O  O190  1  0.807300  0.504960  0.529640  1.0  -0.5617
  O  O191  1  0.680500  0.504270  0.002270  1.0  -0.5788
  O  O192  1  0.748800  0.356500  0.052230  1.0  -0.6398
  O  O193  1  0.642300  0.407220  0.475530  1.0  -0.6678
  O  O194  1  0.769400  0.294600  0.524900  1.0  -0.5516
  O  O195  1  0.475700  0.643290  0.001710  1.0  -0.6511
  O  O196  1  0.333400  0.737660  0.038860  1.0  -0.5742
  O  O197  1  0.687500  0.554970  0.332090  1.0  -0.5871
  O  O198  1  0.498200  0.570450  0.390670  1.0  -0.6041
  O  O199  1  0.447600  0.449660  0.113870  1.0  -0.5899
  O  O200  1  0.531300  0.309400  0.172520  1.0  -0.6271
  O  O201  1  0.355900  0.422270  0.506330  1.0  -0.6577
  O  O202  1  0.192700  0.495040  0.470360  1.0  -0.5616
  O  O203  1  0.319500  0.495730  0.997730  1.0  -0.5786
  O  O204  1  0.251200  0.643500  0.947770  1.0  -0.6411
  O  O205  1  0.357700  0.592780  0.524470  1.0  -0.6681
  O  O206  1  0.230600  0.705400  0.475100  1.0  -0.5514
