# generated using pymatgen
data_V2P2O9
_symmetry_space_group_name_H-M   'P 1'
_cell_length_a   7.02500000
_cell_length_b   9.47000000
_cell_length_c   16.57000000
_cell_angle_alpha   90.00000000
_cell_angle_beta   96.03000000
_cell_angle_gamma   90.00000000
_symmetry_Int_Tables_number   1
_chemical_formula_structural   V2P2O9
_chemical_formula_sum   'V8 P8 O36'
_cell_volume   1096.24898559
_cell_formula_units_Z   4
loop_
 _symmetry_equiv_pos_site_id
 _symmetry_equiv_pos_as_xyz
  1  'x, y, z'
loop_
 _atom_site_type_symbol
 _atom_site_label
 _atom_site_symmetry_multiplicity
 _atom_site_fract_x
 _atom_site_fract_y
 _atom_site_fract_z
 _atom_site_occupancy
 _atom_site_charge
  V  V1  1  0.587400  0.000000  0.683200  1.0  1.3081
  V  V2  1  0.087400  0.500000  0.183200  1.0  1.3081
  V  V3  1  0.596700  0.500000  0.425400  1.0  0.9592
  V  V4  1  0.328500  0.500000  0.905600  1.0  1.8345
  V  V5  1  0.822400  0.500000  0.883400  1.0  2.0183
  V  V6  1  0.096700  0.000000  0.925400  1.0  0.9592
  V  V7  1  0.828500  0.000000  0.405600  1.0  1.8345
  V  V8  1  0.322400  0.000000  0.383400  1.0  2.0183
  P  P9  1  0.561300  0.198800  0.511300  1.0  1.9318
  P  P10  1  0.508400  0.294900  0.775800  1.0  1.8223
  P  P11  1  0.061300  0.698800  0.011300  1.0  1.9318
  P  P12  1  0.008400  0.794900  0.275800  1.0  1.8223
  P  P13  1  0.561300  0.801200  0.511300  1.0  1.9295
  P  P14  1  0.508400  0.705100  0.775800  1.0  1.8227
  P  P15  1  0.061300  0.301200  0.011300  1.0  1.9295
  P  P16  1  0.008400  0.205100  0.275800  1.0  1.8227
  O  O17  1  0.563200  0.154100  0.601100  1.0  -0.8499
  O  O18  1  0.520600  0.135500  0.768300  1.0  -0.758
  O  O19  1  0.560100  0.362100  0.512500  1.0  -0.7163
  O  O20  1  0.346300  0.342700  0.823300  1.0  -0.7213
  O  O21  1  0.737400  0.145400  0.476300  1.0  -0.8007
  O  O22  1  0.698900  0.350400  0.811300  1.0  -0.8111
  O  O23  1  0.378900  0.147700  0.463900  1.0  -0.7763
  O  O24  1  0.464100  0.353300  0.687100  1.0  -0.5831
  O  O25  1  0.063200  0.654100  0.101100  1.0  -0.8499
  O  O26  1  0.020600  0.635500  0.268300  1.0  -0.758
  O  O27  1  0.060100  0.862100  0.012500  1.0  -0.7163
  O  O28  1  0.846300  0.842700  0.323300  1.0  -0.7213
  O  O29  1  0.237400  0.645400  0.976300  1.0  -0.8007
  O  O30  1  0.198900  0.850400  0.311300  1.0  -0.8111
  O  O31  1  0.878900  0.647700  0.963900  1.0  -0.7763
  O  O32  1  0.964100  0.853300  0.187100  1.0  -0.5831
  O  O33  1  0.563200  0.845900  0.601100  1.0  -0.8498
  O  O34  1  0.520600  0.864500  0.768300  1.0  -0.7566
  O  O35  1  0.560100  0.637900  0.512500  1.0  -0.7179
  O  O36  1  0.346300  0.657300  0.823300  1.0  -0.7208
  O  O37  1  0.737400  0.854600  0.476300  1.0  -0.8007
  O  O38  1  0.698900  0.649600  0.811300  1.0  -0.8116
  O  O39  1  0.378900  0.852300  0.463900  1.0  -0.7766
  O  O40  1  0.464100  0.646700  0.687100  1.0  -0.5834
  O  O41  1  0.063200  0.345900  0.101100  1.0  -0.8498
  O  O42  1  0.020600  0.364500  0.268300  1.0  -0.7566
  O  O43  1  0.060100  0.137900  0.012500  1.0  -0.7179
  O  O44  1  0.846300  0.157300  0.323300  1.0  -0.7208
  O  O45  1  0.237400  0.354600  0.976300  1.0  -0.8007
  O  O46  1  0.198900  0.149600  0.311300  1.0  -0.8116
  O  O47  1  0.878900  0.352300  0.963900  1.0  -0.7766
  O  O48  1  0.964100  0.146700  0.187100  1.0  -0.5834
  O  O49  1  0.555100  0.500000  0.936000  1.0  -0.8005
  O  O50  1  0.033400  0.500000  0.849100  1.0  -0.7918
  O  O51  1  0.055100  0.000000  0.436000  1.0  -0.8005
  O  O52  1  0.533400  0.000000  0.349100  1.0  -0.7918
