# generated using pymatgen
data_V2P2HO9
_symmetry_space_group_name_H-M   'P 1'
_cell_length_a   17.39900000
_cell_length_b   9.47900000
_cell_length_c   7.05500000
_cell_angle_alpha   90.00000000
_cell_angle_beta   108.02600000
_cell_angle_gamma   90.00000000
_symmetry_Int_Tables_number   1
_chemical_formula_structural   V2P2HO9
_chemical_formula_sum   'V8 P8 H4 O36'
_cell_volume   1106.43542316
_cell_formula_units_Z   4
loop_
 _symmetry_equiv_pos_site_id
 _symmetry_equiv_pos_as_xyz
  1  'x, y, z'
loop_
 _atom_site_type_symbol
 _atom_site_label
 _atom_site_symmetry_multiplicity
 _atom_site_fract_x
 _atom_site_fract_y
 _atom_site_fract_z
 _atom_site_occupancy
 _atom_site_charge
  V  V1  1  0.650300  0.000000  0.562200  1.0  0.9495
  V  V2  1  0.150300  0.500000  0.562200  1.0  0.9495
  V  V3  1  0.908060  0.500000  0.831120  1.0  1.2823
  V  V4  1  0.632150  0.500000  0.310550  1.0  1.8103
  V  V5  1  0.607960  0.500000  0.793820  1.0  1.9919
  V  V6  1  0.408060  0.000000  0.831120  1.0  1.2823
  V  V7  1  0.132150  0.000000  0.310550  1.0  1.8103
  V  V8  1  0.107960  0.000000  0.793820  1.0  1.9919
  P  P9  1  0.736430  0.300950  0.684460  1.0  1.8248
  P  P10  1  0.001060  0.204650  0.000070  1.0  1.8794
  P  P11  1  0.236430  0.800950  0.684460  1.0  1.8248
  P  P12  1  0.501060  0.704650  0.000070  1.0  1.8794
  P  P13  1  0.736430  0.699050  0.684460  1.0  1.8244
  P  P14  1  0.001060  0.795350  0.000070  1.0  1.8795
  P  P15  1  0.236430  0.199050  0.684460  1.0  1.8244
  P  P16  1  0.501060  0.295350  0.000070  1.0  1.8795
  H  H17  1  0.882000  0.209000  0.897000  1.0  0.3698
  H  H18  1  0.382000  0.709000  0.897000  1.0  0.3698
  H  H19  1  0.882000  0.791000  0.897000  1.0  0.3706
  H  H20  1  0.382000  0.291000  0.897000  1.0  0.3706
  O  O21  1  0.737270  0.137400  0.685400  1.0  -0.7806
  O  O22  1  0.992430  0.362700  0.980900  1.0  -0.8034
  O  O23  1  0.826320  0.344700  0.775100  1.0  -0.8531
  O  O24  1  0.701810  0.354100  0.472100  1.0  -0.8255
  O  O25  1  0.049440  0.156500  0.208000  1.0  -0.7817
  O  O26  1  0.688900  0.351500  0.818400  1.0  -0.8076
  O  O27  1  0.034800  0.146600  0.844200  1.0  -0.8486
  O  O28  1  0.913680  0.144500  0.957800  1.0  -0.6055
  O  O29  1  0.237270  0.637400  0.685400  1.0  -0.7806
  O  O30  1  0.492430  0.862700  0.980900  1.0  -0.8034
  O  O31  1  0.326320  0.844700  0.775100  1.0  -0.8531
  O  O32  1  0.201810  0.854100  0.472100  1.0  -0.8255
  O  O33  1  0.549440  0.656500  0.208000  1.0  -0.7817
  O  O34  1  0.188900  0.851500  0.818400  1.0  -0.8076
  O  O35  1  0.534800  0.646600  0.844200  1.0  -0.8486
  O  O36  1  0.413680  0.644500  0.957800  1.0  -0.6055
  O  O37  1  0.737270  0.862600  0.685400  1.0  -0.7785
  O  O38  1  0.992430  0.637300  0.980900  1.0  -0.8043
  O  O39  1  0.826320  0.655300  0.775100  1.0  -0.8534
  O  O40  1  0.701810  0.645900  0.472100  1.0  -0.8274
  O  O41  1  0.049440  0.843500  0.208000  1.0  -0.7801
  O  O42  1  0.688900  0.648500  0.818400  1.0  -0.807
  O  O43  1  0.034800  0.853400  0.844200  1.0  -0.8486
  O  O44  1  0.913680  0.855500  0.957800  1.0  -0.6055
  O  O45  1  0.237270  0.362600  0.685400  1.0  -0.7785
  O  O46  1  0.492430  0.137300  0.980900  1.0  -0.8043
  O  O47  1  0.326320  0.155300  0.775100  1.0  -0.8534
  O  O48  1  0.201810  0.145900  0.472100  1.0  -0.8274
  O  O49  1  0.549440  0.343500  0.208000  1.0  -0.7801
  O  O50  1  0.188900  0.148500  0.818400  1.0  -0.807
  O  O51  1  0.534800  0.353400  0.844200  1.0  -0.8486
  O  O52  1  0.413680  0.355500  0.957800  1.0  -0.6055
  O  O53  1  0.664400  0.500000  0.118700  1.0  -0.8163
  O  O54  1  0.571700  0.500000  0.551000  1.0  -0.7554
  O  O55  1  0.164400  0.000000  0.118700  1.0  -0.8166
  O  O56  1  0.071700  0.000000  0.551000  1.0  -0.7554
