# generated using pymatgen
data_Zn2H32C41(NO3)4
_symmetry_space_group_name_H-M   'P 1'
_cell_length_a   9.34020000
_cell_length_b   13.73910000
_cell_length_c   20.09000000
_cell_angle_alpha   86.13720000
_cell_angle_beta   78.56890000
_cell_angle_gamma   70.12840000
_symmetry_Int_Tables_number   1
_chemical_formula_structural   Zn2H32C41(NO3)4
_chemical_formula_sum   'Zn4 H64 C82 N8 O24'
_cell_volume   2376.46733060
_cell_formula_units_Z   2
loop_
 _symmetry_equiv_pos_site_id
 _symmetry_equiv_pos_as_xyz
  1  'x, y, z'
loop_
 _atom_site_type_symbol
 _atom_site_label
 _atom_site_symmetry_multiplicity
 _atom_site_fract_x
 _atom_site_fract_y
 _atom_site_fract_z
 _atom_site_occupancy
 _atom_site_charge
  Zn  Zn1  1  0.658770  0.243420  0.986400  1.0  0.8788
  Zn  Zn2  1  0.097810  0.243420  0.513600  1.0  0.8781
  Zn  Zn3  1  0.341230  0.756580  0.013600  1.0  0.8777
  Zn  Zn4  1  0.902190  0.756580  0.486400  1.0  0.8782
  H  H5  1  0.981000  0.129000  0.934000  1.0  0.078
  H  H6  1  0.135600  0.986200  0.871900  1.0  0.1325
  H  H7  1  0.756700  0.910800  0.869000  1.0  0.1211
  H  H8  1  0.611200  0.060800  0.928300  1.0  0.077
  H  H9  1  0.972300  0.737800  0.836800  1.0  0.0727
  H  H10  1  0.921000  0.814400  0.777200  1.0  0.0516
  H  H11  1  0.289000  0.684600  0.819600  1.0  0.0514
  H  H12  1  0.367500  0.615000  0.754400  1.0  0.0713
  H  H13  1  0.596800  0.453800  0.937100  1.0  0.0785
  H  H14  1  0.444400  0.578200  0.875900  1.0  0.1201
  H  H15  1  0.230500  0.380400  0.850600  1.0  0.1392
  H  H16  1  0.381400  0.262200  0.913200  1.0  0.086
  H  H17  1  0.124500  0.355600  0.059900  1.0  0.123
  H  H18  1  0.810500  0.496600  0.943700  1.0  0.0972
  H  H19  1  0.386000  0.327400  0.192600  1.0  0.103
  H  H20  1  0.532800  0.014800  0.190900  1.0  0.1078
  H  H21  1  0.890000  0.129000  0.566000  1.0  0.0783
  H  H22  1  0.878200  0.986200  0.628100  1.0  0.1335
  H  H23  1  0.332500  0.910800  0.631000  1.0  0.1211
  H  H24  1  0.328000  0.060800  0.571700  1.0  0.0759
  H  H25  1  0.289900  0.737800  0.663200  1.0  0.0725
  H  H26  1  0.264600  0.814400  0.722800  1.0  0.0516
  H  H27  1  0.026400  0.684600  0.680400  1.0  0.0519
  H  H28  1  0.017500  0.615000  0.745600  1.0  0.072
  H  H29  1  0.949400  0.453800  0.562900  1.0  0.0789
  H  H30  1  0.977400  0.578200  0.624100  1.0  0.1205
  H  H31  1  0.389100  0.380400  0.649400  1.0  0.1388
  H  H32  1  0.356400  0.262200  0.586800  1.0  0.086
  H  H33  1  0.519900  0.355600  0.440100  1.0  0.1231
  H  H34  1  0.692900  0.496600  0.556300  1.0  0.0974
  H  H35  1  0.286600  0.327400  0.307400  1.0  0.1031
  H  H36  1  0.452400  0.014800  0.309100  1.0  0.1081
  H  H37  1  0.019000  0.871000  0.066000  1.0  0.078
  H  H38  1  0.864400  0.013800  0.128100  1.0  0.1351
  H  H39  1  0.243300  0.089200  0.131000  1.0  0.1209
  H  H40  1  0.388800  0.939200  0.071700  1.0  0.0765
  H  H41  1  0.027700  0.262200  0.163200  1.0  0.0727
  H  H42  1  0.079000  0.185600  0.222800  1.0  0.0516
  H  H43  1  0.711000  0.315400  0.180400  1.0  0.052
  H  H44  1  0.632500  0.385000  0.245600  1.0  0.0712
  H  H45  1  0.403200  0.546200  0.062900  1.0  0.0792
  H  H46  1  0.555600  0.421800  0.124100  1.0  0.1207
  H  H47  1  0.769500  0.619600  0.149400  1.0  0.1386
  H  H48  1  0.618600  0.737800  0.086800  1.0  0.0859
  H  H49  1  0.875500  0.644400  0.940100  1.0  0.1231
  H  H50  1  0.189500  0.503400  0.056300  1.0  0.0978
  H  H51  1  0.614000  0.672600  0.807400  1.0  0.1031
  H  H52  1  0.467200  0.985200  0.809100  1.0  0.1085
  H  H53  1  0.110000  0.871000  0.434000  1.0  0.0784
  H  H54  1  0.121800  0.013800  0.371900  1.0  0.1341
  H  H55  1  0.667500  0.089200  0.369000  1.0  0.121
  H  H56  1  0.672000  0.939200  0.428300  1.0  0.0773
  H  H57  1  0.710100  0.262200  0.336800  1.0  0.0728
  H  H58  1  0.735400  0.185600  0.277200  1.0  0.0512
  H  H59  1  0.973600  0.315400  0.319600  1.0  0.0516
  H  H60  1  0.982500  0.385000  0.254400  1.0  0.0718
  H  H61  1  0.050600  0.546200  0.437100  1.0  0.0785
  H  H62  1  0.022600  0.421800  0.375900  1.0  0.1206
  H  H63  1  0.610900  0.619600  0.350600  1.0  0.1396
  H  H64  1  0.643600  0.737800  0.413200  1.0  0.0864
  H  H65  1  0.480100  0.644400  0.559900  1.0  0.1227
  H  H66  1  0.307100  0.503400  0.443700  1.0  0.0974
  H  H67  1  0.713400  0.672600  0.692600  1.0  0.1027
  H  H68  1  0.547600  0.985200  0.690900  1.0  0.1082
  C  C69  1  0.935490  0.085420  0.919780  1.0  0.1693
  C  C70  1  0.029160  0.999680  0.883000  1.0  -0.2652
  C  C71  1  0.964090  0.933420  0.862620  1.0  0.3011
  C  C72  1  0.803770  0.955260  0.880840  1.0  -0.3035
  C  C73  1  0.718110  0.044780  0.916890  1.0  0.1738
  C  C74  1  0.006890  0.778820  0.800040  1.0  0.056
  C  C75  1  0.271530  0.643540  0.786610  1.0  0.0758
  C  C76  1  0.522800  0.438200  0.919070  1.0  0.1911
  C  C77  1  0.431160  0.513880  0.882610  1.0  -0.2652
  C  C78  1  0.321620  0.493360  0.856730  1.0  0.3138
  C  C79  1  0.304870  0.396260  0.868220  1.0  -0.2581
  C  C80  1  0.396650  0.325700  0.904800  1.0  0.1644
  C  C81  1  0.914150  0.315300  0.004100  1.0  0.6797
  C  C82  1  0.074400  0.413200  0.035860  1.0  -0.0838
  C  C83  1  0.958810  0.411180  0.001310  1.0  -0.1371
  C  C84  1  0.887370  0.497860  0.966500  1.0  -0.0035
  C  C85  1  0.533060  0.170080  0.105530  1.0  0.6758
  C  C86  1  0.396220  0.264960  0.215530  1.0  -0.035
  C  C87  1  0.469230  0.171740  0.180390  1.0  -0.1591
  C  C88  1  0.487240  0.076920  0.214700  1.0  -0.0523
  C  C89  1  0.979090  0.085420  0.580220  1.0  0.1697
  C  C90  1  0.971160  0.999680  0.617000  1.0  -0.2681
  C  C91  1  0.102490  0.933420  0.637380  1.0  0.3015
  C  C92  1  0.240970  0.955260  0.619160  1.0  -0.3015
  C  C93  1  0.237110  0.044780  0.583110  1.0  0.1734
  C  C94  1  0.214290  0.778820  0.699960  1.0  0.0592
  C  C95  1  0.084930  0.643540  0.713390  1.0  0.0753
  C  C96  1  0.039000  0.438200  0.580930  1.0  0.191
  C  C97  1  0.054960  0.513880  0.617390  1.0  -0.2656
  C  C98  1  0.185020  0.493360  0.643270  1.0  0.314
  C  C99  1  0.298870  0.396260  0.631780  1.0  -0.2579
  C  C100  1  0.277650  0.325700  0.595200  1.0  0.1634
  C  C101  1  0.770550  0.315300  0.495900  1.0  0.6798
  C  C102  1  0.512400  0.413200  0.464140  1.0  -0.0842
  C  C103  1  0.630010  0.411180  0.498690  1.0  -0.1346
  C  C104  1  0.614770  0.497860  0.533500  1.0  -0.0056
  C  C105  1  0.296860  0.170080  0.394470  1.0  0.6755
  C  C106  1  0.338820  0.264960  0.284470  1.0  -0.0361
  C  C107  1  0.359030  0.171740  0.319610  1.0  -0.1578
  C  C108  1  0.435840  0.076920  0.285300  1.0  -0.0515
  C  C109  1  0.064510  0.914580  0.080220  1.0  0.1703
  C  C110  1  0.970840  0.000320  0.117000  1.0  -0.2679
  C  C111  1  0.035910  0.066580  0.137380  1.0  0.301
  C  C112  1  0.196230  0.044740  0.119160  1.0  -0.3012
  C  C113  1  0.281890  0.955220  0.083110  1.0  0.1738
  C  C114  1  0.993110  0.221180  0.199960  1.0  0.0585
  C  C115  1  0.728470  0.356460  0.213390  1.0  0.0771
  C  C116  1  0.477200  0.561800  0.080930  1.0  0.1906
  C  C117  1  0.568840  0.486120  0.117390  1.0  -0.2659
  C  C118  1  0.678380  0.506640  0.143270  1.0  0.3137
  C  C119  1  0.695130  0.603740  0.131780  1.0  -0.2566
  C  C120  1  0.603350  0.674300  0.095200  1.0  0.1642
  C  C121  1  0.085850  0.684700  0.995900  1.0  0.6795
  C  C122  1  0.925600  0.586800  0.964140  1.0  -0.0827
  C  C123  1  0.041190  0.588820  0.998690  1.0  -0.1342
  C  C124  1  0.112630  0.502140  0.033500  1.0  -0.0058
  C  C125  1  0.466940  0.829920  0.894470  1.0  0.6755
  C  C126  1  0.603780  0.735040  0.784470  1.0  -0.0353
  C  C127  1  0.530770  0.828260  0.819610  1.0  -0.1581
  C  C128  1  0.512760  0.923080  0.785300  1.0  -0.0511
  C  C129  1  0.020910  0.914580  0.419780  1.0  0.1696
  C  C130  1  0.028840  0.000320  0.383000  1.0  -0.265
  C  C131  1  0.897510  0.066580  0.362620  1.0  0.3007
  C  C132  1  0.759030  0.044740  0.380840  1.0  -0.3023
  C  C133  1  0.762890  0.955220  0.416890  1.0  0.1747
  C  C134  1  0.785710  0.221180  0.300040  1.0  0.0569
  C  C135  1  0.915070  0.356460  0.286610  1.0  0.0774
  C  C136  1  0.961000  0.561800  0.419070  1.0  0.1913
  C  C137  1  0.945040  0.486120  0.382610  1.0  -0.2654
  C  C138  1  0.814980  0.506640  0.356730  1.0  0.3138
  C  C139  1  0.701130  0.603740  0.368220  1.0  -0.2585
  C  C140  1  0.722350  0.674300  0.404800  1.0  0.1651
  C  C141  1  0.229450  0.684700  0.504100  1.0  0.6802
  C  C142  1  0.487600  0.586800  0.535860  1.0  -0.0829
  C  C143  1  0.369990  0.588820  0.501310  1.0  -0.1355
  C  C144  1  0.385230  0.502140  0.466500  1.0  -0.0039
  C  C145  1  0.703140  0.829920  0.605530  1.0  0.6762
  C  C146  1  0.661180  0.735040  0.715530  1.0  -0.0347
  C  C147  1  0.640970  0.828260  0.680390  1.0  -0.159
  C  C148  1  0.564160  0.923080  0.714700  1.0  -0.0505
  C  C149  1  0.144960  0.710080  0.750000  1.0  -0.0369
  C  C150  1  0.855040  0.289920  0.250000  1.0  -0.0371
  N  N151  1  0.781260  0.110280  0.936450  1.0  -0.3816
  N  N152  1  0.511850  0.342500  0.930410  1.0  -0.3717
  N  N153  1  0.108460  0.110280  0.563550  1.0  -0.3819
  N  N154  1  0.145650  0.342500  0.569590  1.0  -0.3714
  N  N155  1  0.218740  0.889720  0.063550  1.0  -0.3802
  N  N156  1  0.488150  0.657500  0.069590  1.0  -0.3702
  N  N157  1  0.891540  0.889720  0.436450  1.0  -0.3804
  N  N158  1  0.854350  0.657500  0.430410  1.0  -0.371
  O  O159  1  0.062510  0.851780  0.825550  1.0  -0.2619
  O  O160  1  0.221830  0.561940  0.819960  1.0  -0.2619
  O  O161  1  0.794320  0.326160  0.979640  1.0  -0.6109
  O  O162  1  0.992040  0.234120  0.028240  1.0  -0.5551
  O  O163  1  0.550270  0.252460  0.080370  1.0  -0.6023
  O  O164  1  0.562180  0.091440  0.071680  1.0  -0.57
  O  O165  1  0.085710  0.851780  0.674450  1.0  -0.2637
  O  O166  1  0.216230  0.561940  0.680040  1.0  -0.2622
  O  O167  1  0.879520  0.326160  0.520360  1.0  -0.6109
  O  O168  1  0.773840  0.234120  0.471760  1.0  -0.5557
  O  O169  1  0.197270  0.252460  0.419630  1.0  -0.6016
  O  O170  1  0.346380  0.091440  0.428320  1.0  -0.5687
  O  O171  1  0.937490  0.148220  0.174450  1.0  -0.266
  O  O172  1  0.778170  0.438060  0.180040  1.0  -0.2609
  O  O173  1  0.205680  0.673840  0.020360  1.0  -0.6113
  O  O174  1  0.007960  0.765880  0.971760  1.0  -0.5566
  O  O175  1  0.449730  0.747540  0.919630  1.0  -0.6021
  O  O176  1  0.437820  0.908560  0.928320  1.0  -0.5693
  O  O177  1  0.914290  0.148220  0.325550  1.0  -0.2626
  O  O178  1  0.783770  0.438060  0.319960  1.0  -0.261
  O  O179  1  0.120480  0.673840  0.479640  1.0  -0.611
  O  O180  1  0.226160  0.765880  0.528240  1.0  -0.5552
  O  O181  1  0.802730  0.747540  0.580370  1.0  -0.6029
  O  O182  1  0.653620  0.908560  0.571680  1.0  -0.5697
