# generated using pymatgen
data_Ag3H45C101S2N9(OF)6
_symmetry_space_group_name_H-M   'P 1'
_cell_length_a   11.59200000
_cell_length_b   19.09920000
_cell_length_c   38.74810000
_cell_angle_alpha   90.00000000
_cell_angle_beta   90.00000000
_cell_angle_gamma   90.00000000
_symmetry_Int_Tables_number   1
_chemical_formula_structural   Ag3H45C101S2N9(OF)6
_chemical_formula_sum   'Ag6 H90 C202 S4 N18 O12 F12'
_cell_volume   8578.74899194
_cell_formula_units_Z   2
loop_
 _symmetry_equiv_pos_site_id
 _symmetry_equiv_pos_as_xyz
  1  'x, y, z'
loop_
 _atom_site_type_symbol
 _atom_site_label
 _atom_site_symmetry_multiplicity
 _atom_site_fract_x
 _atom_site_fract_y
 _atom_site_fract_z
 _atom_site_occupancy
 _atom_site_charge
  Ag  Ag1  1  0.200600  0.534100  0.256600  1.0  0.3512
  Ag  Ag2  1  0.799400  0.465900  0.256600  1.0  0.3522
  Ag  Ag3  1  0.700600  0.965900  0.756600  1.0  0.3512
  Ag  Ag4  1  0.299400  0.034100  0.756600  1.0  0.3523
  Ag  Ag5  1  0.500000  0.500000  0.290000  1.0  0.3996
  Ag  Ag6  1  0.000000  0.000000  0.790000  1.0  0.3996
  H  H7  1  0.574100  0.098900  0.457700  1.0  0.065
  H  H8  1  0.424100  0.298600  0.397500  1.0  0.1059
  H  H9  1  0.340500  0.390300  0.364200  1.0  0.115
  H  H10  1  0.381600  0.275200  0.281600  1.0  0.1051
  H  H11  1  0.459300  0.187000  0.313800  1.0  0.085
  H  H12  1  0.653600  0.026300  0.363600  1.0  0.1142
  H  H13  1  0.859100  0.862500  0.303800  1.0  0.1192
  H  H14  1  0.945500  0.764400  0.269700  1.0  0.1503
  H  H15  1  0.976200  0.656000  0.362500  1.0  0.1077
  H  H16  1  0.878000  0.744200  0.389800  1.0  0.0971
  H  H17  1  0.750400  0.919400  0.449100  1.0  0.0976
  H  H18  1  0.713500  0.898200  0.567300  1.0  0.0826
  H  H19  1  0.745800  0.897900  0.626500  1.0  0.1132
  H  H20  1  0.620500  0.092600  0.628400  1.0  0.0735
  H  H21  1  0.598600  0.092600  0.571500  1.0  0.1136
  H  H22  1  0.211000  0.725600  0.429400  1.0  0.0887
  H  H23  1  0.307500  0.627000  0.405100  1.0  0.1094
  H  H24  1  0.270800  0.718200  0.311700  1.0  0.0906
  H  H25  1  0.180900  0.822600  0.339200  1.0  0.1101
  H  H26  1  0.070000  0.903000  0.486200  1.0  0.1127
  H  H27  1  0.038100  0.894100  0.663600  1.0  0.1056
  H  H28  1  0.039700  0.899900  0.603600  1.0  0.0864
  H  H29  1  0.425900  0.901100  0.457700  1.0  0.0654
  H  H30  1  0.575900  0.701400  0.397500  1.0  0.1056
  H  H31  1  0.659500  0.609700  0.364200  1.0  0.1152
  H  H32  1  0.618400  0.724800  0.281600  1.0  0.1046
  H  H33  1  0.540700  0.813000  0.313800  1.0  0.0848
  H  H34  1  0.346400  0.973700  0.363600  1.0  0.1136
  H  H35  1  0.140900  0.137500  0.303800  1.0  0.1193
  H  H36  1  0.054500  0.235600  0.269700  1.0  0.1504
  H  H37  1  0.023800  0.344000  0.362500  1.0  0.1073
  H  H38  1  0.122000  0.255800  0.389800  1.0  0.0969
  H  H39  1  0.249600  0.080600  0.449100  1.0  0.0978
  H  H40  1  0.286500  0.101800  0.567300  1.0  0.0848
  H  H41  1  0.254200  0.102100  0.626500  1.0  0.1123
  H  H42  1  0.379500  0.907400  0.628400  1.0  0.0752
  H  H43  1  0.401400  0.907400  0.571500  1.0  0.1124
  H  H44  1  0.789000  0.274400  0.429400  1.0  0.089
  H  H45  1  0.692500  0.373000  0.405100  1.0  0.1096
  H  H46  1  0.729200  0.281800  0.311700  1.0  0.0909
  H  H47  1  0.819100  0.177400  0.339200  1.0  0.1109
  H  H48  1  0.930000  0.097000  0.486200  1.0  0.113
  H  H49  1  0.961900  0.105900  0.663600  1.0  0.105
  H  H50  1  0.960300  0.100100  0.603600  1.0  0.0888
  H  H51  1  0.074100  0.401100  0.957700  1.0  0.0655
  H  H52  1  0.924100  0.201400  0.897500  1.0  0.1062
  H  H53  1  0.840500  0.109700  0.864200  1.0  0.1151
  H  H54  1  0.881600  0.224800  0.781600  1.0  0.105
  H  H55  1  0.959300  0.313000  0.813800  1.0  0.0849
  H  H56  1  0.153600  0.473700  0.863600  1.0  0.114
  H  H57  1  0.359100  0.637500  0.803800  1.0  0.1192
  H  H58  1  0.445500  0.735600  0.769700  1.0  0.1499
  H  H59  1  0.476200  0.844000  0.862500  1.0  0.1074
  H  H60  1  0.378000  0.755800  0.889800  1.0  0.0969
  H  H61  1  0.250400  0.580600  0.949100  1.0  0.0975
  H  H62  1  0.213500  0.601800  0.067300  1.0  0.0846
  H  H63  1  0.245800  0.602100  0.126500  1.0  0.1126
  H  H64  1  0.120500  0.407400  0.128400  1.0  0.0754
  H  H65  1  0.098600  0.407400  0.071500  1.0  0.1124
  H  H66  1  0.711000  0.774400  0.929400  1.0  0.0896
  H  H67  1  0.807500  0.873000  0.905100  1.0  0.1101
  H  H68  1  0.770800  0.781800  0.811700  1.0  0.0904
  H  H69  1  0.680900  0.677400  0.839200  1.0  0.1105
  H  H70  1  0.570000  0.597000  0.986200  1.0  0.1126
  H  H71  1  0.538100  0.605900  0.163600  1.0  0.1048
  H  H72  1  0.539700  0.600100  0.103600  1.0  0.0883
  H  H73  1  0.925900  0.598900  0.957700  1.0  0.0642
  H  H74  1  0.075900  0.798600  0.897500  1.0  0.1053
  H  H75  1  0.159500  0.890300  0.864200  1.0  0.1151
  H  H76  1  0.118400  0.775200  0.781600  1.0  0.1049
  H  H77  1  0.040700  0.687000  0.813800  1.0  0.0848
  H  H78  1  0.846400  0.526300  0.863600  1.0  0.1138
  H  H79  1  0.640900  0.362500  0.803800  1.0  0.1193
  H  H80  1  0.554500  0.264400  0.769700  1.0  0.1508
  H  H81  1  0.523800  0.156000  0.862500  1.0  0.1074
  H  H82  1  0.622000  0.244200  0.889800  1.0  0.0972
  H  H83  1  0.749600  0.419400  0.949100  1.0  0.0974
  H  H84  1  0.786500  0.398200  0.067300  1.0  0.0827
  H  H85  1  0.754200  0.397900  0.126500  1.0  0.1126
  H  H86  1  0.879500  0.592600  0.128400  1.0  0.0731
  H  H87  1  0.901400  0.592600  0.071500  1.0  0.1133
  H  H88  1  0.289000  0.225600  0.929400  1.0  0.09
  H  H89  1  0.192500  0.127000  0.905100  1.0  0.1095
  H  H90  1  0.229200  0.218200  0.811700  1.0  0.0911
  H  H91  1  0.319100  0.322600  0.839200  1.0  0.1104
  H  H92  1  0.430000  0.403000  0.986200  1.0  0.1129
  H  H93  1  0.461900  0.394100  0.163600  1.0  0.1058
  H  H94  1  0.460300  0.399900  0.103600  1.0  0.0865
  H  H95  1  0.000000  0.000000  0.395300  1.0  0.0759
  H  H96  1  0.500000  0.500000  0.895300  1.0  0.0759
  C  C97  1  0.310600  0.775000  0.232600  1.0  0.3393
  C  C98  1  0.607500  0.064400  0.444000  1.0  -0.1001
  C  C99  1  0.601800  0.072500  0.409100  1.0  0.0295
  C  C100  1  0.545800  0.128300  0.390200  1.0  0.073
  C  C101  1  0.499800  0.178700  0.374000  1.0  0.0903
  C  C102  1  0.445900  0.232700  0.357700  1.0  0.4172
  C  C103  1  0.414200  0.293500  0.373900  1.0  -0.1262
  C  C104  1  0.365600  0.349100  0.353900  1.0  -0.1907
  C  C105  1  0.358000  0.339300  0.320000  1.0  0.317
  C  C106  1  0.301900  0.395700  0.303200  1.0  0.2203
  C  C107  1  0.389800  0.280800  0.305300  1.0  -0.1493
  C  C108  1  0.435300  0.227800  0.324800  1.0  -0.169
  C  C109  1  0.656400  0.021200  0.387500  1.0  -0.0515
  C  C110  1  0.716100  0.961100  0.402400  1.0  -0.0209
  C  C111  1  0.770500  0.910900  0.382300  1.0  0.1549
  C  C112  1  0.818000  0.867300  0.366400  1.0  0.1415
  C  C113  1  0.867100  0.807600  0.349600  1.0  -0.0033
  C  C114  1  0.881000  0.820400  0.314000  1.0  -0.1497
  C  C115  1  0.933400  0.761500  0.293400  1.0  -0.0797
  C  C116  1  0.964900  0.697200  0.314300  1.0  -0.0261
  C  C117  1  0.026500  0.639200  0.295800  1.0  0.3712
  C  C118  1  0.949700  0.694300  0.350100  1.0  -0.1205
  C  C119  1  0.895600  0.748400  0.366500  1.0  -0.1541
  C  C120  1  0.714400  0.957100  0.438400  1.0  -0.1021
  C  C121  1  0.658300  0.010000  0.460000  1.0  0.0764
  C  C122  1  0.664000  0.004900  0.494900  1.0  0.1661
  C  C123  1  0.667700  0.999500  0.525800  1.0  -0.0127
  C  C124  1  0.671800  0.996400  0.563900  1.0  0.0385
  C  C125  1  0.700700  0.938700  0.580100  1.0  -0.1195
  C  C126  1  0.712800  0.936300  0.615600  1.0  -0.154
  C  C127  1  0.673200  0.994200  0.634500  1.0  -0.0647
  C  C128  1  0.674500  0.990700  0.675700  1.0  0.3085
  C  C129  1  0.638900  0.052300  0.616100  1.0  -0.1286
  C  C130  1  0.630700  0.054200  0.582700  1.0  -0.1819
  C  C131  1  0.039600  0.945000  0.436500  1.0  0.0608
  C  C132  1  0.087700  0.885600  0.418900  1.0  -0.0078
  C  C133  1  0.127400  0.835300  0.403700  1.0  0.1245
  C  C134  1  0.186000  0.782300  0.388100  1.0  0.0581
  C  C135  1  0.223500  0.725400  0.405700  1.0  -0.1312
  C  C136  1  0.281300  0.664000  0.391600  1.0  -0.127
  C  C137  1  0.293200  0.666800  0.355700  1.0  0.0184
  C  C138  1  0.349800  0.613400  0.335800  1.0  0.4363
  C  C139  1  0.259800  0.720100  0.335500  1.0  -0.1541
  C  C140  1  0.203100  0.784100  0.352200  1.0  -0.1296
  C  C141  1  0.041900  0.941900  0.474500  1.0  -0.1207
  C  C142  1  0.024000  0.934600  0.650900  1.0  -0.1088
  C  C143  1  0.023000  0.940500  0.615800  1.0  -0.073
  C  C144  1  0.689400  0.225000  0.232600  1.0  0.3417
  C  C145  1  0.392500  0.935600  0.444000  1.0  -0.099
  C  C146  1  0.398200  0.927500  0.409100  1.0  0.028
  C  C147  1  0.454200  0.871700  0.390200  1.0  0.0728
  C  C148  1  0.500200  0.821300  0.374000  1.0  0.0888
  C  C149  1  0.554100  0.767300  0.357700  1.0  0.4173
  C  C150  1  0.585800  0.706500  0.373900  1.0  -0.1249
  C  C151  1  0.634400  0.650900  0.353900  1.0  -0.1904
  C  C152  1  0.642000  0.660700  0.320000  1.0  0.3155
  C  C153  1  0.698100  0.604300  0.303200  1.0  0.2186
  C  C154  1  0.610200  0.719200  0.305300  1.0  -0.1506
  C  C155  1  0.564700  0.772200  0.324800  1.0  -0.1678
  C  C156  1  0.343600  0.978800  0.387500  1.0  -0.0519
  C  C157  1  0.283900  0.038900  0.402400  1.0  -0.0195
  C  C158  1  0.229500  0.089100  0.382300  1.0  0.1554
  C  C159  1  0.182000  0.132700  0.366400  1.0  0.1434
  C  C160  1  0.132900  0.192400  0.349600  1.0  -0.0051
  C  C161  1  0.119000  0.179600  0.314000  1.0  -0.1502
  C  C162  1  0.066600  0.238500  0.293400  1.0  -0.0786
  C  C163  1  0.035100  0.302800  0.314300  1.0  -0.0255
  C  C164  1  0.973500  0.360800  0.295800  1.0  0.3701
  C  C165  1  0.050300  0.305700  0.350100  1.0  -0.1206
  C  C166  1  0.104400  0.251600  0.366500  1.0  -0.1528
  C  C167  1  0.285600  0.042900  0.438400  1.0  -0.103
  C  C168  1  0.341700  0.990000  0.460000  1.0  0.0759
  C  C169  1  0.336000  0.995100  0.494900  1.0  0.166
  C  C170  1  0.332300  0.000500  0.525800  1.0  -0.013
  C  C171  1  0.328200  0.003600  0.563900  1.0  0.0375
  C  C172  1  0.299300  0.061300  0.580100  1.0  -0.1201
  C  C173  1  0.287200  0.063700  0.615600  1.0  -0.1549
  C  C174  1  0.326800  0.005800  0.634500  1.0  -0.0656
  C  C175  1  0.325500  0.009300  0.675700  1.0  0.3093
  C  C176  1  0.361100  0.947700  0.616100  1.0  -0.1282
  C  C177  1  0.369300  0.945800  0.582700  1.0  -0.1798
  C  C178  1  0.960400  0.055000  0.436500  1.0  0.0624
  C  C179  1  0.912300  0.114400  0.418900  1.0  -0.0073
  C  C180  1  0.872600  0.164700  0.403700  1.0  0.1247
  C  C181  1  0.814000  0.217700  0.388100  1.0  0.0565
  C  C182  1  0.776500  0.274600  0.405700  1.0  -0.1278
  C  C183  1  0.718700  0.336000  0.391600  1.0  -0.128
  C  C184  1  0.706800  0.333200  0.355700  1.0  0.0189
  C  C185  1  0.650200  0.386600  0.335800  1.0  0.4322
  C  C186  1  0.740200  0.279900  0.335500  1.0  -0.156
  C  C187  1  0.796900  0.215900  0.352200  1.0  -0.1294
  C  C188  1  0.958100  0.058100  0.474500  1.0  -0.1228
  C  C189  1  0.976000  0.065400  0.650900  1.0  -0.1113
  C  C190  1  0.977000  0.059500  0.615800  1.0  -0.0771
  C  C191  1  0.810600  0.725000  0.732600  1.0  0.3408
  C  C192  1  0.107500  0.435600  0.944000  1.0  -0.0984
  C  C193  1  0.101800  0.427500  0.909100  1.0  0.0275
  C  C194  1  0.045800  0.371700  0.890200  1.0  0.0729
  C  C195  1  0.999800  0.321300  0.874000  1.0  0.0897
  C  C196  1  0.945900  0.267300  0.857700  1.0  0.4172
  C  C197  1  0.914200  0.206500  0.873900  1.0  -0.126
  C  C198  1  0.865600  0.150900  0.853900  1.0  -0.1907
  C  C199  1  0.858000  0.160700  0.820000  1.0  0.3153
  C  C200  1  0.801900  0.104300  0.803200  1.0  0.2204
  C  C201  1  0.889800  0.219200  0.805300  1.0  -0.1497
  C  C202  1  0.935300  0.272200  0.824800  1.0  -0.1665
  C  C203  1  0.156400  0.478800  0.887500  1.0  -0.0515
  C  C204  1  0.216100  0.538900  0.902400  1.0  -0.0191
  C  C205  1  0.270500  0.589100  0.882300  1.0  0.1555
  C  C206  1  0.318000  0.632700  0.866400  1.0  0.1416
  C  C207  1  0.367100  0.692400  0.849600  1.0  -0.0053
  C  C208  1  0.381000  0.679600  0.814000  1.0  -0.151
  C  C209  1  0.433400  0.738500  0.793400  1.0  -0.0789
  C  C210  1  0.464900  0.802800  0.814300  1.0  -0.0252
  C  C211  1  0.526500  0.860800  0.795800  1.0  0.3704
  C  C212  1  0.449700  0.805700  0.850100  1.0  -0.1195
  C  C213  1  0.395600  0.751600  0.866500  1.0  -0.1544
  C  C214  1  0.214400  0.542900  0.938400  1.0  -0.1018
  C  C215  1  0.158300  0.490000  0.960000  1.0  0.0757
  C  C216  1  0.164000  0.495100  0.994900  1.0  0.1661
  C  C217  1  0.167700  0.500500  0.025800  1.0  -0.0129
  C  C218  1  0.171800  0.503600  0.063900  1.0  0.0374
  C  C219  1  0.200700  0.561300  0.080100  1.0  -0.12
  C  C220  1  0.212800  0.563700  0.115600  1.0  -0.1542
  C  C221  1  0.173200  0.505800  0.134500  1.0  -0.0649
  C  C222  1  0.174500  0.509300  0.175700  1.0  0.3081
  C  C223  1  0.138900  0.447700  0.116100  1.0  -0.1279
  C  C224  1  0.130700  0.445800  0.082700  1.0  -0.1797
  C  C225  1  0.539600  0.555000  0.936500  1.0  0.0621
  C  C226  1  0.587700  0.614400  0.918900  1.0  -0.0077
  C  C227  1  0.627400  0.664700  0.903700  1.0  0.1247
  C  C228  1  0.686000  0.717700  0.888100  1.0  0.0581
  C  C229  1  0.723500  0.774600  0.905700  1.0  -0.1305
  C  C230  1  0.781300  0.836000  0.891600  1.0  -0.127
  C  C231  1  0.793200  0.833200  0.855700  1.0  0.02
  C  C232  1  0.849800  0.886600  0.835800  1.0  0.4336
  C  C233  1  0.759800  0.779900  0.835500  1.0  -0.1551
  C  C234  1  0.703100  0.715900  0.852200  1.0  -0.13
  C  C235  1  0.541900  0.558100  0.974500  1.0  -0.1209
  C  C236  1  0.524000  0.565400  0.150900  1.0  -0.1103
  C  C237  1  0.523000  0.559500  0.115800  1.0  -0.0752
  C  C238  1  0.189400  0.275000  0.732600  1.0  0.3397
  C  C239  1  0.892500  0.564400  0.944000  1.0  -0.0991
  C  C240  1  0.898200  0.572500  0.909100  1.0  0.0295
  C  C241  1  0.954200  0.628300  0.890200  1.0  0.073
  C  C242  1  0.000200  0.678700  0.874000  1.0  0.0892
  C  C243  1  0.054100  0.732700  0.857700  1.0  0.4172
  C  C244  1  0.085800  0.793500  0.873900  1.0  -0.1248
  C  C245  1  0.134400  0.849100  0.853900  1.0  -0.1888
  C  C246  1  0.142000  0.839300  0.820000  1.0  0.3169
  C  C247  1  0.198100  0.895700  0.803200  1.0  0.2188
  C  C248  1  0.110200  0.780800  0.805300  1.0  -0.1501
  C  C249  1  0.064700  0.727800  0.824800  1.0  -0.1704
  C  C250  1  0.843600  0.521200  0.887500  1.0  -0.0518
  C  C251  1  0.783900  0.461100  0.902400  1.0  -0.0216
  C  C252  1  0.729500  0.410900  0.882300  1.0  0.1549
  C  C253  1  0.682000  0.367300  0.866400  1.0  0.1432
  C  C254  1  0.632900  0.307600  0.849600  1.0  -0.0031
  C  C255  1  0.619000  0.320400  0.814000  1.0  -0.1484
  C  C256  1  0.566600  0.261500  0.793400  1.0  -0.0796
  C  C257  1  0.535100  0.197200  0.814300  1.0  -0.0264
  C  C258  1  0.473500  0.139200  0.795800  1.0  0.3708
  C  C259  1  0.550300  0.194300  0.850100  1.0  -0.121
  C  C260  1  0.604400  0.248400  0.866500  1.0  -0.1526
  C  C261  1  0.785600  0.457100  0.938400  1.0  -0.1024
  C  C262  1  0.841700  0.510000  0.960000  1.0  0.0766
  C  C263  1  0.836000  0.504900  0.994900  1.0  0.166
  C  C264  1  0.832300  0.499500  0.025800  1.0  -0.0128
  C  C265  1  0.828200  0.496400  0.063900  1.0  0.0385
  C  C266  1  0.799300  0.438700  0.080100  1.0  -0.1189
  C  C267  1  0.787200  0.436300  0.115600  1.0  -0.1545
  C  C268  1  0.826800  0.494200  0.134500  1.0  -0.0654
  C  C269  1  0.825500  0.490700  0.175700  1.0  0.3098
  C  C270  1  0.861100  0.552300  0.116100  1.0  -0.1275
  C  C271  1  0.869300  0.554200  0.082700  1.0  -0.1808
  C  C272  1  0.460400  0.445000  0.936500  1.0  0.061
  C  C273  1  0.412300  0.385600  0.918900  1.0  -0.0071
  C  C274  1  0.372600  0.335300  0.903700  1.0  0.1246
  C  C275  1  0.314000  0.282300  0.888100  1.0  0.0563
  C  C276  1  0.276500  0.225400  0.905700  1.0  -0.1288
  C  C277  1  0.218700  0.164000  0.891600  1.0  -0.1278
  C  C278  1  0.206800  0.166800  0.855700  1.0  0.0172
  C  C279  1  0.150200  0.113400  0.835800  1.0  0.4355
  C  C280  1  0.240200  0.220100  0.835500  1.0  -0.155
  C  C281  1  0.296900  0.284100  0.852200  1.0  -0.1285
  C  C282  1  0.458100  0.441900  0.974500  1.0  -0.1227
  C  C283  1  0.476000  0.434600  0.150900  1.0  -0.1097
  C  C284  1  0.477000  0.440500  0.115800  1.0  -0.0735
  C  C285  1  0.000000  0.000000  0.419300  1.0  -0.0794
  C  C286  1  0.000000  0.000000  0.491900  1.0  -0.0308
  C  C287  1  0.000000  0.000000  0.529800  1.0  0.0399
  C  C288  1  0.000000  0.000000  0.596100  1.0  0.0447
  C  C289  1  0.000000  0.000000  0.560700  1.0  0.0926
  C  C290  1  0.000000  0.000000  0.664100  1.0  0.0053
  C  C291  1  0.000000  0.000000  0.699400  1.0  0.1232
  C  C292  1  0.500000  0.500000  0.919300  1.0  -0.0794
  C  C293  1  0.500000  0.500000  0.991900  1.0  -0.0308
  C  C294  1  0.500000  0.500000  0.029800  1.0  0.0399
  C  C295  1  0.500000  0.500000  0.096100  1.0  0.0447
  C  C296  1  0.500000  0.500000  0.060700  1.0  0.0926
  C  C297  1  0.500000  0.500000  0.164100  1.0  0.0053
  C  C298  1  0.500000  0.500000  0.199400  1.0  0.1232
  S  S299  1  0.359800  0.680200  0.225300  1.0  1.1939
  S  S300  1  0.640200  0.319800  0.225300  1.0  1.1944
  S  S301  1  0.859800  0.819800  0.725300  1.0  1.1939
  S  S302  1  0.140200  0.180200  0.725300  1.0  1.1944
  N  N303  1  0.253800  0.438300  0.284900  1.0  -0.504
  N  N304  1  0.670500  0.987900  0.703800  1.0  -0.4216
  N  N305  1  0.064100  0.596200  0.283800  1.0  -0.4044
  N  N306  1  0.392600  0.568100  0.325100  1.0  -0.4567
  N  N307  1  0.746200  0.561700  0.284900  1.0  -0.5033
  N  N308  1  0.329500  0.012100  0.703800  1.0  -0.4214
  N  N309  1  0.935900  0.403800  0.283800  1.0  -0.4046
  N  N310  1  0.607400  0.431900  0.325100  1.0  -0.4594
  N  N311  1  0.753800  0.061700  0.784900  1.0  -0.5041
  N  N312  1  0.170500  0.512100  0.203800  1.0  -0.4207
  N  N313  1  0.564100  0.903800  0.783800  1.0  -0.4028
  N  N314  1  0.892600  0.931900  0.825100  1.0  -0.4577
  N  N315  1  0.246200  0.938300  0.784900  1.0  -0.5031
  N  N316  1  0.829500  0.487900  0.203800  1.0  -0.4222
  N  N317  1  0.435900  0.096200  0.783800  1.0  -0.4069
  N  N318  1  0.107400  0.068100  0.825100  1.0  -0.4586
  N  N319  1  0.000000  0.000000  0.733300  1.0  -0.3888
  N  N320  1  0.500000  0.500000  0.233300  1.0  -0.3888
  O  O321  1  0.316600  0.640500  0.258400  1.0  -0.8327
  O  O322  1  0.303400  0.661700  0.194600  1.0  -0.5687
  O  O323  1  0.480200  0.678500  0.218900  1.0  -0.5088
  O  O324  1  0.683400  0.359500  0.258400  1.0  -0.8325
  O  O325  1  0.696600  0.338300  0.194600  1.0  -0.5685
  O  O326  1  0.519800  0.321500  0.218900  1.0  -0.5085
  O  O327  1  0.816600  0.859500  0.758400  1.0  -0.8326
  O  O328  1  0.803400  0.838300  0.694600  1.0  -0.5689
  O  O329  1  0.980200  0.821500  0.718900  1.0  -0.5084
  O  O330  1  0.183400  0.140500  0.758400  1.0  -0.8328
  O  O331  1  0.196600  0.161700  0.694600  1.0  -0.5686
  O  O332  1  0.019800  0.178500  0.718900  1.0  -0.5092
  F  F333  1  0.204200  0.763500  0.240400  1.0  -0.2752
  F  F334  1  0.295500  0.799100  0.206600  1.0  -0.2348
  F  F335  1  0.362200  0.791100  0.260400  1.0  -0.2216
  F  F336  1  0.795800  0.236500  0.240400  1.0  -0.2729
  F  F337  1  0.704500  0.200900  0.206600  1.0  -0.2329
  F  F338  1  0.637800  0.208900  0.260400  1.0  -0.2207
  F  F339  1  0.704200  0.736500  0.740400  1.0  -0.2732
  F  F340  1  0.795500  0.700900  0.706600  1.0  -0.2181
  F  F341  1  0.862200  0.708900  0.760400  1.0  -0.2196
  F  F342  1  0.295800  0.263500  0.740400  1.0  -0.2734
  F  F343  1  0.204500  0.299100  0.706600  1.0  -0.221
  F  F344  1  0.137800  0.291100  0.760400  1.0  -0.2219
