# generated using pymatgen
data_Ga4(PO4)5
_symmetry_space_group_name_H-M   'P 1'
_cell_length_a   9.57400000
_cell_length_b   14.00000000
_cell_length_c   17.43500000
_cell_angle_alpha   90.00000000
_cell_angle_beta   90.00000000
_cell_angle_gamma   90.00000000
_symmetry_Int_Tables_number   1
_chemical_formula_structural   Ga4(PO4)5
_chemical_formula_sum   'Ga16 P20 O80'
_cell_volume   2336.91766000
_cell_formula_units_Z   4
loop_
 _symmetry_equiv_pos_site_id
 _symmetry_equiv_pos_as_xyz
  1  'x, y, z'
loop_
 _atom_site_type_symbol
 _atom_site_label
 _atom_site_symmetry_multiplicity
 _atom_site_fract_x
 _atom_site_fract_y
 _atom_site_fract_z
 _atom_site_occupancy
 _atom_site_charge
  Ga  Ga1  1  0.224630  0.293950  0.698460  1.0  1.7014
  Ga  Ga2  1  0.451180  0.501750  0.456240  1.0  1.7067
  Ga  Ga3  1  0.245540  0.207190  0.471850  1.0  1.6609
  Ga  Ga4  1  0.461070  0.511500  0.927100  1.0  1.7092
  Ga  Ga5  1  0.275370  0.706050  0.198460  1.0  1.7015
  Ga  Ga6  1  0.048820  0.498250  0.956240  1.0  1.697
  Ga  Ga7  1  0.254460  0.792810  0.971850  1.0  1.6623
  Ga  Ga8  1  0.038930  0.488500  0.427100  1.0  1.7098
  Ga  Ga9  1  0.775370  0.793950  0.801540  1.0  1.6975
  Ga  Ga10  1  0.548820  0.001750  0.043760  1.0  1.6969
  Ga  Ga11  1  0.754460  0.707190  0.028150  1.0  1.6625
  Ga  Ga12  1  0.538930  0.011500  0.572900  1.0  1.7098
  Ga  Ga13  1  0.724630  0.206050  0.301540  1.0  1.7021
  Ga  Ga14  1  0.951180  0.998250  0.543760  1.0  1.705
  Ga  Ga15  1  0.745540  0.292810  0.528150  1.0  1.6597
  Ga  Ga16  1  0.961070  0.988500  0.072900  1.0  1.7097
  P  P17  1  0.254700  0.349390  0.874050  1.0  1.7472
  P  P18  1  0.221900  0.420180  0.551070  1.0  1.9203
  P  P19  1  0.483200  0.212870  0.619630  1.0  1.7683
  P  P20  1  0.763400  0.522880  0.511330  1.0  1.8845
  P  P21  1  0.002200  0.181910  0.609850  1.0  1.8199
  P  P22  1  0.245300  0.650610  0.374050  1.0  1.7463
  P  P23  1  0.278100  0.579820  0.051070  1.0  1.9343
  P  P24  1  0.016800  0.787130  0.119630  1.0  1.7585
  P  P25  1  0.736600  0.477120  0.011330  1.0  1.8842
  P  P26  1  0.497800  0.818090  0.109850  1.0  1.8194
  P  P27  1  0.745300  0.849390  0.625950  1.0  1.7466
  P  P28  1  0.778100  0.920180  0.948930  1.0  1.9361
  P  P29  1  0.516800  0.712870  0.880370  1.0  1.7646
  P  P30  1  0.236600  0.022880  0.988670  1.0  1.8845
  P  P31  1  0.997800  0.681910  0.890150  1.0  1.8191
  P  P32  1  0.754700  0.150610  0.125950  1.0  1.7462
  P  P33  1  0.721900  0.079820  0.448930  1.0  1.9144
  P  P34  1  0.983200  0.287130  0.380370  1.0  1.7646
  P  P35  1  0.263400  0.977120  0.488670  1.0  1.8844
  P  P36  1  0.502200  0.318090  0.390150  1.0  1.819
  O  O37  1  0.190300  0.339000  0.794200  1.0  -0.8551
  O  O38  1  0.401200  0.246300  0.692700  1.0  -0.784
  O  O39  1  0.089600  0.204000  0.683000  1.0  -0.7823
  O  O40  1  0.196100  0.397000  0.635900  1.0  -0.8756
  O  O41  1  0.367000  0.467300  0.546600  1.0  -0.8029
  O  O42  1  0.137400  0.387300  0.926000  1.0  -0.886
  O  O43  1  0.618400  0.553000  0.483000  1.0  -0.847
  O  O44  1  0.933700  0.081900  0.624300  1.0  -0.7699
  O  O45  1  0.208900  0.338500  0.497600  1.0  -0.8528
  O  O46  1  0.602900  0.282500  0.609400  1.0  -0.7299
  O  O47  1  0.386000  0.202700  0.552700  1.0  -0.8633
  O  O48  1  0.769000  0.429700  0.554100  1.0  -0.7537
  O  O49  1  0.892500  0.259400  0.602100  1.0  -0.7717
  O  O50  1  0.095000  0.165500  0.541000  1.0  -0.8633
  O  O51  1  0.374900  0.421000  0.867900  1.0  -0.8669
  O  O52  1  0.111300  0.493100  0.524400  1.0  -0.8328
  O  O53  1  0.541100  0.112200  0.638800  1.0  -0.8086
  O  O54  1  0.857000  0.524500  0.439900  1.0  -0.8314
  O  O55  1  0.307800  0.256400  0.904800  1.0  -0.569
  O  O56  1  0.812100  0.599700  0.568500  1.0  -0.5687
  O  O57  1  0.309700  0.661000  0.294200  1.0  -0.855
  O  O58  1  0.098800  0.753700  0.192700  1.0  -0.7857
  O  O59  1  0.410400  0.796000  0.183000  1.0  -0.7825
  O  O60  1  0.303900  0.603000  0.135900  1.0  -0.8746
  O  O61  1  0.133000  0.532700  0.046600  1.0  -0.8042
  O  O62  1  0.362600  0.612700  0.426000  1.0  -0.8843
  O  O63  1  0.881600  0.447000  0.983000  1.0  -0.8441
  O  O64  1  0.566300  0.918100  0.124300  1.0  -0.7685
  O  O65  1  0.291100  0.661500  0.997600  1.0  -0.8531
  O  O66  1  0.897100  0.717500  0.109400  1.0  -0.7309
  O  O67  1  0.114000  0.797300  0.052700  1.0  -0.8651
  O  O68  1  0.731000  0.570300  0.054100  1.0  -0.7549
  O  O69  1  0.607500  0.740600  0.102100  1.0  -0.7707
  O  O70  1  0.405000  0.834500  0.041000  1.0  -0.8626
  O  O71  1  0.125100  0.579000  0.367900  1.0  -0.8675
  O  O72  1  0.388700  0.506900  0.024400  1.0  -0.8302
  O  O73  1  0.958900  0.887800  0.138800  1.0  -0.808
  O  O74  1  0.643000  0.475500  0.939900  1.0  -0.8291
  O  O75  1  0.192200  0.743600  0.404800  1.0  -0.5688
  O  O76  1  0.687900  0.400300  0.068500  1.0  -0.5697
  O  O77  1  0.809700  0.839000  0.705800  1.0  -0.8537
  O  O78  1  0.598800  0.746300  0.807300  1.0  -0.7838
  O  O79  1  0.910400  0.704000  0.817000  1.0  -0.7818
  O  O80  1  0.803900  0.897000  0.864100  1.0  -0.8724
  O  O81  1  0.633000  0.967300  0.953400  1.0  -0.8039
  O  O82  1  0.862600  0.887300  0.574000  1.0  -0.8856
  O  O83  1  0.381600  0.053000  0.017000  1.0  -0.8465
  O  O84  1  0.066300  0.581900  0.875700  1.0  -0.7698
  O  O85  1  0.791100  0.838500  0.002400  1.0  -0.8527
  O  O86  1  0.397100  0.782500  0.890600  1.0  -0.7316
  O  O87  1  0.614000  0.702700  0.947300  1.0  -0.8634
  O  O88  1  0.231000  0.929700  0.945900  1.0  -0.7552
  O  O89  1  0.107500  0.759400  0.897900  1.0  -0.7742
  O  O90  1  0.905000  0.665500  0.959000  1.0  -0.8628
  O  O91  1  0.625100  0.921000  0.632100  1.0  -0.8655
  O  O92  1  0.888700  0.993100  0.975600  1.0  -0.8306
  O  O93  1  0.458900  0.612200  0.861200  1.0  -0.8125
  O  O94  1  0.143000  0.024500  0.060100  1.0  -0.8315
  O  O95  1  0.692200  0.756400  0.595200  1.0  -0.5696
  O  O96  1  0.187900  0.099700  0.931500  1.0  -0.5692
  O  O97  1  0.690300  0.161000  0.205800  1.0  -0.8553
  O  O98  1  0.901200  0.253700  0.307300  1.0  -0.7843
  O  O99  1  0.589600  0.296000  0.317000  1.0  -0.7812
  O  O100  1  0.696100  0.103000  0.364100  1.0  -0.8714
  O  O101  1  0.867000  0.032700  0.453400  1.0  -0.8032
  O  O102  1  0.637400  0.112700  0.074000  1.0  -0.8871
  O  O103  1  0.118400  0.947000  0.517000  1.0  -0.8457
  O  O104  1  0.433700  0.418100  0.375700  1.0  -0.7702
  O  O105  1  0.708900  0.161500  0.502400  1.0  -0.8526
  O  O106  1  0.102900  0.217500  0.390600  1.0  -0.7318
  O  O107  1  0.886000  0.297300  0.447300  1.0  -0.8628
  O  O108  1  0.269000  0.070300  0.445900  1.0  -0.7552
  O  O109  1  0.392500  0.240600  0.397900  1.0  -0.7733
  O  O110  1  0.595000  0.334500  0.459000  1.0  -0.8627
  O  O111  1  0.874900  0.079000  0.132100  1.0  -0.8671
  O  O112  1  0.611300  0.006900  0.475600  1.0  -0.83
  O  O113  1  0.041100  0.387800  0.361200  1.0  -0.8138
  O  O114  1  0.357000  0.975500  0.560100  1.0  -0.8303
  O  O115  1  0.807800  0.243600  0.095200  1.0  -0.5667
  O  O116  1  0.312100  0.900300  0.431500  1.0  -0.5692
