# generated using pymatgen
data_CuH2(C3O2)2
_symmetry_space_group_name_H-M   'P 1'
_cell_length_a   26.23200000
_cell_length_b   26.23200000
_cell_length_c   26.23200000
_cell_angle_alpha   90.00000000
_cell_angle_beta   90.00000000
_cell_angle_gamma   90.00000000
_symmetry_Int_Tables_number   1
_chemical_formula_structural   CuH2(C3O2)2
_chemical_formula_sum   'Cu48 H96 C288 O192'
_cell_volume   18050.70675917
_cell_formula_units_Z   48
loop_
 _symmetry_equiv_pos_site_id
 _symmetry_equiv_pos_as_xyz
  1  'x, y, z'
loop_
 _atom_site_type_symbol
 _atom_site_label
 _atom_site_symmetry_multiplicity
 _atom_site_fract_x
 _atom_site_fract_y
 _atom_site_fract_z
 _atom_site_occupancy
 _atom_site_charge
  Cu  Cu1  1  0.000000  0.214880  0.214880  1.0  0.9056
  Cu  Cu2  1  0.000000  0.714880  0.714880  1.0  0.9056
  Cu  Cu3  1  0.500000  0.214880  0.714880  1.0  0.9056
  Cu  Cu4  1  0.500000  0.714880  0.214880  1.0  0.9056
  Cu  Cu5  1  0.000000  0.785120  0.214880  1.0  0.9056
  Cu  Cu6  1  0.000000  0.285120  0.714880  1.0  0.9056
  Cu  Cu7  1  0.500000  0.785120  0.714880  1.0  0.9056
  Cu  Cu8  1  0.500000  0.285120  0.214880  1.0  0.9056
  Cu  Cu9  1  0.000000  0.214880  0.785120  1.0  0.9048
  Cu  Cu10  1  0.000000  0.714880  0.285120  1.0  0.9048
  Cu  Cu11  1  0.500000  0.214880  0.285120  1.0  0.9048
  Cu  Cu12  1  0.500000  0.714880  0.785120  1.0  0.9048
  Cu  Cu13  1  0.000000  0.785120  0.785120  1.0  0.9054
  Cu  Cu14  1  0.000000  0.285120  0.285120  1.0  0.9054
  Cu  Cu15  1  0.500000  0.785120  0.285120  1.0  0.9054
  Cu  Cu16  1  0.500000  0.285120  0.785120  1.0  0.9054
  Cu  Cu17  1  0.214880  0.000000  0.214880  1.0  0.9069
  Cu  Cu18  1  0.214880  0.500000  0.714880  1.0  0.9069
  Cu  Cu19  1  0.714880  0.000000  0.714880  1.0  0.9069
  Cu  Cu20  1  0.714880  0.500000  0.214880  1.0  0.9069
  Cu  Cu21  1  0.214880  0.000000  0.785120  1.0  0.906
  Cu  Cu22  1  0.214880  0.500000  0.285120  1.0  0.906
  Cu  Cu23  1  0.714880  0.000000  0.285120  1.0  0.906
  Cu  Cu24  1  0.714880  0.500000  0.785120  1.0  0.906
  Cu  Cu25  1  0.785120  0.000000  0.214880  1.0  0.9056
  Cu  Cu26  1  0.785120  0.500000  0.714880  1.0  0.9056
  Cu  Cu27  1  0.285120  0.000000  0.714880  1.0  0.9056
  Cu  Cu28  1  0.285120  0.500000  0.214880  1.0  0.9056
  Cu  Cu29  1  0.785120  0.000000  0.785120  1.0  0.9048
  Cu  Cu30  1  0.785120  0.500000  0.285120  1.0  0.9048
  Cu  Cu31  1  0.285120  0.000000  0.285120  1.0  0.9048
  Cu  Cu32  1  0.285120  0.500000  0.785120  1.0  0.9048
  Cu  Cu33  1  0.214880  0.214880  0.000000  1.0  0.9078
  Cu  Cu34  1  0.214880  0.714880  0.500000  1.0  0.9078
  Cu  Cu35  1  0.714880  0.214880  0.500000  1.0  0.9078
  Cu  Cu36  1  0.714880  0.714880  0.000000  1.0  0.9078
  Cu  Cu37  1  0.785120  0.214880  0.000000  1.0  0.9065
  Cu  Cu38  1  0.785120  0.714880  0.500000  1.0  0.9065
  Cu  Cu39  1  0.285120  0.214880  0.500000  1.0  0.9065
  Cu  Cu40  1  0.285120  0.714880  0.000000  1.0  0.9065
  Cu  Cu41  1  0.214880  0.785120  0.000000  1.0  0.9078
  Cu  Cu42  1  0.214880  0.285120  0.500000  1.0  0.9078
  Cu  Cu43  1  0.714880  0.785120  0.500000  1.0  0.9078
  Cu  Cu44  1  0.714880  0.285120  0.000000  1.0  0.9078
  Cu  Cu45  1  0.785120  0.785120  0.000000  1.0  0.9077
  Cu  Cu46  1  0.785120  0.285120  0.500000  1.0  0.9077
  Cu  Cu47  1  0.285120  0.785120  0.500000  1.0  0.9077
  Cu  Cu48  1  0.285120  0.285120  0.000000  1.0  0.9077
  H  H49  1  0.880900  0.228600  0.380900  1.0  0.1188
  H  H50  1  0.880900  0.728600  0.880900  1.0  0.1188
  H  H51  1  0.380900  0.728600  0.380900  1.0  0.1188
  H  H52  1  0.119100  0.771400  0.380900  1.0  0.1186
  H  H53  1  0.119100  0.271400  0.880900  1.0  0.1186
  H  H54  1  0.119100  0.228600  0.619100  1.0  0.1187
  H  H55  1  0.119100  0.728600  0.119100  1.0  0.1187
  H  H56  1  0.880900  0.771400  0.619100  1.0  0.1188
  H  H57  1  0.880900  0.271400  0.119100  1.0  0.1188
  H  H58  1  0.380900  0.771400  0.119100  1.0  0.1188
  H  H59  1  0.380900  0.880900  0.228600  1.0  0.1194
  H  H60  1  0.380900  0.380900  0.728600  1.0  0.1194
  H  H61  1  0.380900  0.119100  0.771400  1.0  0.1196
  H  H62  1  0.380900  0.619100  0.271400  1.0  0.1196
  H  H63  1  0.619100  0.119100  0.228600  1.0  0.1191
  H  H64  1  0.619100  0.619100  0.728600  1.0  0.1191
  H  H65  1  0.119100  0.119100  0.728600  1.0  0.1191
  H  H66  1  0.619100  0.880900  0.771400  1.0  0.1192
  H  H67  1  0.619100  0.380900  0.271400  1.0  0.1192
  H  H68  1  0.119100  0.380900  0.771400  1.0  0.1192
  H  H69  1  0.228600  0.380900  0.880900  1.0  0.1189
  H  H70  1  0.728600  0.380900  0.380900  1.0  0.1189
  H  H71  1  0.771400  0.380900  0.119100  1.0  0.1187
  H  H72  1  0.271400  0.380900  0.619100  1.0  0.1187
  H  H73  1  0.228600  0.619100  0.119100  1.0  0.1188
  H  H74  1  0.728600  0.619100  0.619100  1.0  0.1188
  H  H75  1  0.728600  0.119100  0.119100  1.0  0.1188
  H  H76  1  0.771400  0.619100  0.880900  1.0  0.1187
  H  H77  1  0.771400  0.119100  0.380900  1.0  0.1187
  H  H78  1  0.271400  0.619100  0.380900  1.0  0.1187
  H  H79  1  0.228600  0.880900  0.619100  1.0  0.1189
  H  H80  1  0.228600  0.380900  0.119100  1.0  0.1189
  H  H81  1  0.728600  0.880900  0.119100  1.0  0.1189
  H  H82  1  0.771400  0.119100  0.619100  1.0  0.1188
  H  H83  1  0.271400  0.119100  0.119100  1.0  0.1188
  H  H84  1  0.228600  0.119100  0.380900  1.0  0.119
  H  H85  1  0.728600  0.119100  0.880900  1.0  0.119
  H  H86  1  0.771400  0.880900  0.380900  1.0  0.1186
  H  H87  1  0.271400  0.880900  0.880900  1.0  0.1186
  H  H88  1  0.271400  0.380900  0.380900  1.0  0.1186
  H  H89  1  0.880900  0.380900  0.771400  1.0  0.1198
  H  H90  1  0.880900  0.880900  0.271400  1.0  0.1198
  H  H91  1  0.380900  0.380900  0.271400  1.0  0.1198
  H  H92  1  0.119100  0.380900  0.228600  1.0  0.1191
  H  H93  1  0.119100  0.880900  0.728600  1.0  0.1191
  H  H94  1  0.119100  0.619100  0.771400  1.0  0.1193
  H  H95  1  0.119100  0.119100  0.271400  1.0  0.1193
  H  H96  1  0.880900  0.619100  0.228600  1.0  0.1192
  H  H97  1  0.880900  0.119100  0.728600  1.0  0.1192
  H  H98  1  0.380900  0.119100  0.228600  1.0  0.1192
  H  H99  1  0.380900  0.228600  0.119100  1.0  0.1188
  H  H100  1  0.380900  0.728600  0.619100  1.0  0.1188
  H  H101  1  0.380900  0.771400  0.880900  1.0  0.1189
  H  H102  1  0.380900  0.271400  0.380900  1.0  0.1189
  H  H103  1  0.619100  0.228600  0.880900  1.0  0.1187
  H  H104  1  0.619100  0.728600  0.380900  1.0  0.1187
  H  H105  1  0.119100  0.228600  0.380900  1.0  0.1187
  H  H106  1  0.619100  0.771400  0.119100  1.0  0.1186
  H  H107  1  0.619100  0.271400  0.619100  1.0  0.1186
  H  H108  1  0.119100  0.271400  0.119100  1.0  0.1186
  H  H109  1  0.119100  0.771400  0.619100  1.0  0.1186
  H  H110  1  0.880900  0.228600  0.619100  1.0  0.1188
  H  H111  1  0.880900  0.728600  0.119100  1.0  0.1188
  H  H112  1  0.880900  0.771400  0.380900  1.0  0.1189
  H  H113  1  0.880900  0.271400  0.880900  1.0  0.1189
  H  H114  1  0.119100  0.728600  0.880900  1.0  0.1187
  H  H115  1  0.619100  0.119100  0.771400  1.0  0.1193
  H  H116  1  0.619100  0.619100  0.271400  1.0  0.1193
  H  H117  1  0.619100  0.880900  0.228600  1.0  0.1191
  H  H118  1  0.619100  0.380900  0.728600  1.0  0.1191
  H  H119  1  0.380900  0.880900  0.771400  1.0  0.1198
  H  H120  1  0.380900  0.619100  0.728600  1.0  0.1192
  H  H121  1  0.771400  0.619100  0.119100  1.0  0.1188
  H  H122  1  0.271400  0.619100  0.619100  1.0  0.1188
  H  H123  1  0.228600  0.619100  0.880900  1.0  0.119
  H  H124  1  0.728600  0.619100  0.380900  1.0  0.119
  H  H125  1  0.771400  0.380900  0.880900  1.0  0.1186
  H  H126  1  0.728600  0.380900  0.619100  1.0  0.1189
  H  H127  1  0.271400  0.119100  0.880900  1.0  0.1187
  H  H128  1  0.228600  0.880900  0.380900  1.0  0.1189
  H  H129  1  0.728600  0.880900  0.880900  1.0  0.1189
  H  H130  1  0.771400  0.880900  0.619100  1.0  0.1187
  H  H131  1  0.271400  0.880900  0.119100  1.0  0.1187
  H  H132  1  0.228600  0.119100  0.619100  1.0  0.1188
  H  H133  1  0.119100  0.619100  0.228600  1.0  0.1191
  H  H134  1  0.880900  0.619100  0.771400  1.0  0.1196
  H  H135  1  0.880900  0.119100  0.271400  1.0  0.1196
  H  H136  1  0.880900  0.380900  0.228600  1.0  0.1194
  H  H137  1  0.880900  0.880900  0.728600  1.0  0.1194
  H  H138  1  0.119100  0.880900  0.271400  1.0  0.1192
  H  H139  1  0.619100  0.771400  0.880900  1.0  0.1186
  H  H140  1  0.619100  0.271400  0.380900  1.0  0.1186
  H  H141  1  0.619100  0.228600  0.119100  1.0  0.1187
  H  H142  1  0.619100  0.728600  0.619100  1.0  0.1187
  H  H143  1  0.380900  0.271400  0.619100  1.0  0.1188
  H  H144  1  0.380900  0.228600  0.880900  1.0  0.1188
  C  C145  1  0.867000  0.199200  0.367000  1.0  0.0161
  C  C146  1  0.867000  0.699200  0.867000  1.0  0.0161
  C  C147  1  0.367000  0.699200  0.367000  1.0  0.0161
  C  C148  1  0.133000  0.800800  0.367000  1.0  0.0163
  C  C149  1  0.133000  0.300800  0.867000  1.0  0.0163
  C  C150  1  0.133000  0.199200  0.633000  1.0  0.0135
  C  C151  1  0.133000  0.699200  0.133000  1.0  0.0135
  C  C152  1  0.867000  0.800800  0.633000  1.0  0.0172
  C  C153  1  0.867000  0.300800  0.133000  1.0  0.0172
  C  C154  1  0.367000  0.800800  0.133000  1.0  0.0172
  C  C155  1  0.367000  0.867000  0.199200  1.0  0.0167
  C  C156  1  0.367000  0.367000  0.699200  1.0  0.0167
  C  C157  1  0.367000  0.133000  0.800800  1.0  0.0151
  C  C158  1  0.367000  0.633000  0.300800  1.0  0.0151
  C  C159  1  0.633000  0.133000  0.199200  1.0  0.0158
  C  C160  1  0.633000  0.633000  0.699200  1.0  0.0158
  C  C161  1  0.133000  0.133000  0.699200  1.0  0.0158
  C  C162  1  0.633000  0.867000  0.800800  1.0  0.0142
  C  C163  1  0.633000  0.367000  0.300800  1.0  0.0142
  C  C164  1  0.133000  0.367000  0.800800  1.0  0.0142
  C  C165  1  0.199200  0.367000  0.867000  1.0  0.0153
  C  C166  1  0.699200  0.367000  0.367000  1.0  0.0153
  C  C167  1  0.800800  0.367000  0.133000  1.0  0.0134
  C  C168  1  0.300800  0.367000  0.633000  1.0  0.0134
  C  C169  1  0.199200  0.633000  0.133000  1.0  0.0141
  C  C170  1  0.699200  0.633000  0.633000  1.0  0.0141
  C  C171  1  0.699200  0.133000  0.133000  1.0  0.0141
  C  C172  1  0.800800  0.633000  0.867000  1.0  0.015
  C  C173  1  0.800800  0.133000  0.367000  1.0  0.015
  C  C174  1  0.300800  0.633000  0.367000  1.0  0.015
  C  C175  1  0.199200  0.867000  0.633000  1.0  0.0142
  C  C176  1  0.199200  0.367000  0.133000  1.0  0.0142
  C  C177  1  0.699200  0.867000  0.133000  1.0  0.0142
  C  C178  1  0.800800  0.133000  0.633000  1.0  0.0134
  C  C179  1  0.300800  0.133000  0.133000  1.0  0.0134
  C  C180  1  0.199200  0.133000  0.367000  1.0  0.0157
  C  C181  1  0.699200  0.133000  0.867000  1.0  0.0157
  C  C182  1  0.800800  0.867000  0.367000  1.0  0.0144
  C  C183  1  0.300800  0.867000  0.867000  1.0  0.0144
  C  C184  1  0.300800  0.367000  0.367000  1.0  0.0144
  C  C185  1  0.867000  0.367000  0.800800  1.0  0.0153
  C  C186  1  0.867000  0.867000  0.300800  1.0  0.0153
  C  C187  1  0.367000  0.367000  0.300800  1.0  0.0153
  C  C188  1  0.133000  0.367000  0.199200  1.0  0.0154
  C  C189  1  0.133000  0.867000  0.699200  1.0  0.0154
  C  C190  1  0.133000  0.633000  0.800800  1.0  0.0138
  C  C191  1  0.133000  0.133000  0.300800  1.0  0.0138
  C  C192  1  0.867000  0.633000  0.199200  1.0  0.0172
  C  C193  1  0.867000  0.133000  0.699200  1.0  0.0172
  C  C194  1  0.367000  0.133000  0.199200  1.0  0.0172
  C  C195  1  0.367000  0.199200  0.133000  1.0  0.0148
  C  C196  1  0.367000  0.699200  0.633000  1.0  0.0148
  C  C197  1  0.367000  0.800800  0.867000  1.0  0.0178
  C  C198  1  0.367000  0.300800  0.367000  1.0  0.0178
  C  C199  1  0.633000  0.199200  0.867000  1.0  0.0146
  C  C200  1  0.633000  0.699200  0.367000  1.0  0.0146
  C  C201  1  0.133000  0.199200  0.367000  1.0  0.0146
  C  C202  1  0.633000  0.800800  0.133000  1.0  0.0156
  C  C203  1  0.633000  0.300800  0.633000  1.0  0.0156
  C  C204  1  0.133000  0.300800  0.133000  1.0  0.0156
  C  C205  1  0.133000  0.800800  0.633000  1.0  0.0156
  C  C206  1  0.867000  0.199200  0.633000  1.0  0.0148
  C  C207  1  0.867000  0.699200  0.133000  1.0  0.0148
  C  C208  1  0.867000  0.800800  0.367000  1.0  0.0178
  C  C209  1  0.867000  0.300800  0.867000  1.0  0.0178
  C  C210  1  0.133000  0.699200  0.867000  1.0  0.0146
  C  C211  1  0.633000  0.133000  0.800800  1.0  0.0138
  C  C212  1  0.633000  0.633000  0.300800  1.0  0.0138
  C  C213  1  0.633000  0.867000  0.199200  1.0  0.0154
  C  C214  1  0.633000  0.367000  0.699200  1.0  0.0154
  C  C215  1  0.367000  0.867000  0.800800  1.0  0.0153
  C  C216  1  0.367000  0.633000  0.699200  1.0  0.0172
  C  C217  1  0.800800  0.633000  0.133000  1.0  0.0134
  C  C218  1  0.300800  0.633000  0.633000  1.0  0.0134
  C  C219  1  0.199200  0.633000  0.867000  1.0  0.0157
  C  C220  1  0.699200  0.633000  0.367000  1.0  0.0157
  C  C221  1  0.800800  0.367000  0.867000  1.0  0.0144
  C  C222  1  0.699200  0.367000  0.633000  1.0  0.0142
  C  C223  1  0.300800  0.133000  0.867000  1.0  0.015
  C  C224  1  0.199200  0.867000  0.367000  1.0  0.0153
  C  C225  1  0.699200  0.867000  0.867000  1.0  0.0153
  C  C226  1  0.800800  0.867000  0.633000  1.0  0.0134
  C  C227  1  0.300800  0.867000  0.133000  1.0  0.0134
  C  C228  1  0.199200  0.133000  0.633000  1.0  0.0141
  C  C229  1  0.133000  0.633000  0.199200  1.0  0.0158
  C  C230  1  0.867000  0.633000  0.800800  1.0  0.0151
  C  C231  1  0.867000  0.133000  0.300800  1.0  0.0151
  C  C232  1  0.867000  0.367000  0.199200  1.0  0.0167
  C  C233  1  0.867000  0.867000  0.699200  1.0  0.0167
  C  C234  1  0.133000  0.867000  0.300800  1.0  0.0142
  C  C235  1  0.633000  0.800800  0.867000  1.0  0.0163
  C  C236  1  0.633000  0.300800  0.367000  1.0  0.0163
  C  C237  1  0.633000  0.199200  0.133000  1.0  0.0135
  C  C238  1  0.633000  0.699200  0.633000  1.0  0.0135
  C  C239  1  0.367000  0.300800  0.633000  1.0  0.0172
  C  C240  1  0.367000  0.199200  0.867000  1.0  0.0161
  C  C241  1  0.889100  0.176600  0.323400  1.0  -0.156
  C  C242  1  0.932500  0.202400  0.297600  1.0  0.6894
  C  C243  1  0.389100  0.176600  0.823400  1.0  -0.156
  C  C244  1  0.432500  0.202400  0.797600  1.0  0.6894
  C  C245  1  0.110900  0.823400  0.323400  1.0  -0.1568
  C  C246  1  0.067500  0.797600  0.297600  1.0  0.6889
  C  C247  1  0.610900  0.823400  0.823400  1.0  -0.1568
  C  C248  1  0.567500  0.797600  0.797600  1.0  0.6889
  C  C249  1  0.610900  0.323400  0.323400  1.0  -0.1568
  C  C250  1  0.567500  0.297600  0.297600  1.0  0.6889
  C  C251  1  0.110900  0.176600  0.676600  1.0  -0.1566
  C  C252  1  0.067500  0.202400  0.702400  1.0  0.6891
  C  C253  1  0.610900  0.176600  0.176600  1.0  -0.1566
  C  C254  1  0.567500  0.202400  0.202400  1.0  0.6891
  C  C255  1  0.889100  0.823400  0.676600  1.0  -0.1563
  C  C256  1  0.932500  0.797600  0.702400  1.0  0.689
  C  C257  1  0.889100  0.323400  0.176600  1.0  -0.1563
  C  C258  1  0.932500  0.297600  0.202400  1.0  0.689
  C  C259  1  0.389100  0.823400  0.176600  1.0  -0.1563
  C  C260  1  0.432500  0.797600  0.202400  1.0  0.689
  C  C261  1  0.323400  0.889100  0.176600  1.0  -0.1563
  C  C262  1  0.297600  0.932500  0.202400  1.0  0.6892
  C  C263  1  0.323400  0.389100  0.676600  1.0  -0.1563
  C  C264  1  0.297600  0.432500  0.702400  1.0  0.6892
  C  C265  1  0.323400  0.110900  0.823400  1.0  -0.1566
  C  C266  1  0.297600  0.067500  0.797600  1.0  0.6891
  C  C267  1  0.323400  0.610900  0.323400  1.0  -0.1566
  C  C268  1  0.297600  0.567500  0.297600  1.0  0.6891
  C  C269  1  0.676600  0.110900  0.176600  1.0  -0.1564
  C  C270  1  0.702400  0.067500  0.202400  1.0  0.6892
  C  C271  1  0.676600  0.610900  0.676600  1.0  -0.1564
  C  C272  1  0.702400  0.567500  0.702400  1.0  0.6892
  C  C273  1  0.176600  0.610900  0.176600  1.0  -0.1564
  C  C274  1  0.202400  0.567500  0.202400  1.0  0.6892
  C  C275  1  0.676600  0.889100  0.823400  1.0  -0.1564
  C  C276  1  0.702400  0.932500  0.797600  1.0  0.6897
  C  C277  1  0.676600  0.389100  0.323400  1.0  -0.1564
  C  C278  1  0.702400  0.432500  0.297600  1.0  0.6897
  C  C279  1  0.176600  0.889100  0.323400  1.0  -0.1564
  C  C280  1  0.202400  0.932500  0.297600  1.0  0.6897
  C  C281  1  0.176600  0.323400  0.889100  1.0  -0.1582
  C  C282  1  0.202400  0.297600  0.932500  1.0  0.6904
  C  C283  1  0.176600  0.823400  0.389100  1.0  -0.1582
  C  C284  1  0.202400  0.797600  0.432500  1.0  0.6904
  C  C285  1  0.823400  0.323400  0.110900  1.0  -0.1578
  C  C286  1  0.797600  0.297600  0.067500  1.0  0.6903
  C  C287  1  0.823400  0.823400  0.610900  1.0  -0.1578
  C  C288  1  0.797600  0.797600  0.567500  1.0  0.6903
  C  C289  1  0.323400  0.323400  0.610900  1.0  -0.1578
  C  C290  1  0.297600  0.297600  0.567500  1.0  0.6903
  C  C291  1  0.176600  0.676600  0.110900  1.0  -0.1577
  C  C292  1  0.202400  0.702400  0.067500  1.0  0.6911
  C  C293  1  0.176600  0.176600  0.610900  1.0  -0.1577
  C  C294  1  0.202400  0.202400  0.567500  1.0  0.6911
  C  C295  1  0.823400  0.676600  0.889100  1.0  -0.1579
  C  C296  1  0.797600  0.702400  0.932500  1.0  0.6905
  C  C297  1  0.823400  0.176600  0.389100  1.0  -0.1579
  C  C298  1  0.797600  0.202400  0.432500  1.0  0.6905
  C  C299  1  0.323400  0.176600  0.889100  1.0  -0.1579
  C  C300  1  0.297600  0.202400  0.932500  1.0  0.6905
  C  C301  1  0.176600  0.889100  0.676600  1.0  -0.1562
  C  C302  1  0.202400  0.932500  0.702400  1.0  0.6895
  C  C303  1  0.176600  0.389100  0.176600  1.0  -0.1562
  C  C304  1  0.202400  0.432500  0.202400  1.0  0.6895
  C  C305  1  0.823400  0.110900  0.676600  1.0  -0.1564
  C  C306  1  0.797600  0.067500  0.702400  1.0  0.6891
  C  C307  1  0.823400  0.610900  0.176600  1.0  -0.1564
  C  C308  1  0.797600  0.567500  0.202400  1.0  0.6891
  C  C309  1  0.323400  0.110900  0.176600  1.0  -0.1564
  C  C310  1  0.297600  0.067500  0.202400  1.0  0.6891
  C  C311  1  0.176600  0.110900  0.323400  1.0  -0.1565
  C  C312  1  0.202400  0.067500  0.297600  1.0  0.6893
  C  C313  1  0.176600  0.610900  0.823400  1.0  -0.1565
  C  C314  1  0.202400  0.567500  0.797600  1.0  0.6893
  C  C315  1  0.823400  0.889100  0.323400  1.0  -0.1564
  C  C316  1  0.797600  0.932500  0.297600  1.0  0.6892
  C  C317  1  0.823400  0.389100  0.823400  1.0  -0.1564
  C  C318  1  0.797600  0.432500  0.797600  1.0  0.6892
  C  C319  1  0.323400  0.389100  0.323400  1.0  -0.1564
  C  C320  1  0.297600  0.432500  0.297600  1.0  0.6892
  C  C321  1  0.889100  0.323400  0.823400  1.0  -0.1563
  C  C322  1  0.932500  0.297600  0.797600  1.0  0.689
  C  C323  1  0.389100  0.323400  0.323400  1.0  -0.1563
  C  C324  1  0.432500  0.297600  0.297600  1.0  0.689
  C  C325  1  0.110900  0.323400  0.176600  1.0  -0.1567
  C  C326  1  0.067500  0.297600  0.202400  1.0  0.6888
  C  C327  1  0.610900  0.323400  0.676600  1.0  -0.1567
  C  C328  1  0.567500  0.297600  0.702400  1.0  0.6888
  C  C329  1  0.110900  0.676600  0.823400  1.0  -0.1567
  C  C330  1  0.067500  0.702400  0.797600  1.0  0.6892
  C  C331  1  0.110900  0.176600  0.323400  1.0  -0.1567
  C  C332  1  0.067500  0.202400  0.297600  1.0  0.6892
  C  C333  1  0.610900  0.676600  0.323400  1.0  -0.1567
  C  C334  1  0.567500  0.702400  0.297600  1.0  0.6892
  C  C335  1  0.889100  0.676600  0.176600  1.0  -0.156
  C  C336  1  0.932500  0.702400  0.202400  1.0  0.6893
  C  C337  1  0.389100  0.676600  0.676600  1.0  -0.156
  C  C338  1  0.432500  0.702400  0.702400  1.0  0.6893
  C  C339  1  0.389100  0.176600  0.176600  1.0  -0.156
  C  C340  1  0.432500  0.202400  0.202400  1.0  0.6893
  C  C341  1  0.323400  0.176600  0.110900  1.0  -0.1577
  C  C342  1  0.297600  0.202400  0.067500  1.0  0.6906
  C  C343  1  0.323400  0.676600  0.610900  1.0  -0.1577
  C  C344  1  0.297600  0.702400  0.567500  1.0  0.6906
  C  C345  1  0.323400  0.823400  0.889100  1.0  -0.1582
  C  C346  1  0.297600  0.797600  0.932500  1.0  0.6902
  C  C347  1  0.323400  0.323400  0.389100  1.0  -0.1582
  C  C348  1  0.297600  0.297600  0.432500  1.0  0.6902
  C  C349  1  0.676600  0.176600  0.889100  1.0  -0.1579
  C  C350  1  0.702400  0.202400  0.932500  1.0  0.6908
  C  C351  1  0.676600  0.676600  0.389100  1.0  -0.1579
  C  C352  1  0.702400  0.702400  0.432500  1.0  0.6908
  C  C353  1  0.176600  0.176600  0.389100  1.0  -0.1579
  C  C354  1  0.202400  0.202400  0.432500  1.0  0.6908
  C  C355  1  0.676600  0.823400  0.110900  1.0  -0.1578
  C  C356  1  0.702400  0.797600  0.067500  1.0  0.6906
  C  C357  1  0.676600  0.323400  0.610900  1.0  -0.1578
  C  C358  1  0.702400  0.297600  0.567500  1.0  0.6906
  C  C359  1  0.176600  0.323400  0.110900  1.0  -0.1578
  C  C360  1  0.202400  0.297600  0.067500  1.0  0.6906
  C  C361  1  0.110900  0.823400  0.676600  1.0  -0.1567
  C  C362  1  0.067500  0.797600  0.702400  1.0  0.6888
  C  C363  1  0.610900  0.823400  0.176600  1.0  -0.1567
  C  C364  1  0.567500  0.797600  0.202400  1.0  0.6888
  C  C365  1  0.889100  0.176600  0.676600  1.0  -0.156
  C  C366  1  0.932500  0.202400  0.702400  1.0  0.6893
  C  C367  1  0.889100  0.823400  0.323400  1.0  -0.1563
  C  C368  1  0.932500  0.797600  0.297600  1.0  0.689
  C  C369  1  0.389100  0.823400  0.823400  1.0  -0.1563
  C  C370  1  0.432500  0.797600  0.797600  1.0  0.689
  C  C371  1  0.610900  0.176600  0.823400  1.0  -0.1567
  C  C372  1  0.567500  0.202400  0.797600  1.0  0.6892
  C  C373  1  0.676600  0.110900  0.823400  1.0  -0.1565
  C  C374  1  0.702400  0.067500  0.797600  1.0  0.6893
  C  C375  1  0.676600  0.610900  0.323400  1.0  -0.1565
  C  C376  1  0.702400  0.567500  0.297600  1.0  0.6893
  C  C377  1  0.676600  0.889100  0.176600  1.0  -0.1562
  C  C378  1  0.702400  0.932500  0.202400  1.0  0.6895
  C  C379  1  0.676600  0.389100  0.676600  1.0  -0.1562
  C  C380  1  0.702400  0.432500  0.702400  1.0  0.6895
  C  C381  1  0.323400  0.889100  0.823400  1.0  -0.1564
  C  C382  1  0.297600  0.932500  0.797600  1.0  0.6892
  C  C383  1  0.323400  0.610900  0.676600  1.0  -0.1564
  C  C384  1  0.297600  0.567500  0.702400  1.0  0.6891
  C  C385  1  0.823400  0.676600  0.110900  1.0  -0.1577
  C  C386  1  0.797600  0.702400  0.067500  1.0  0.6906
  C  C387  1  0.823400  0.176600  0.610900  1.0  -0.1577
  C  C388  1  0.797600  0.202400  0.567500  1.0  0.6906
  C  C389  1  0.176600  0.676600  0.889100  1.0  -0.1579
  C  C390  1  0.202400  0.702400  0.932500  1.0  0.6908
  C  C391  1  0.823400  0.323400  0.889100  1.0  -0.1582
  C  C392  1  0.797600  0.297600  0.932500  1.0  0.6902
  C  C393  1  0.823400  0.823400  0.389100  1.0  -0.1582
  C  C394  1  0.797600  0.797600  0.432500  1.0  0.6902
  C  C395  1  0.176600  0.823400  0.610900  1.0  -0.1578
  C  C396  1  0.202400  0.797600  0.567500  1.0  0.6906
  C  C397  1  0.823400  0.110900  0.323400  1.0  -0.1566
  C  C398  1  0.797600  0.067500  0.297600  1.0  0.6891
  C  C399  1  0.823400  0.610900  0.823400  1.0  -0.1566
  C  C400  1  0.797600  0.567500  0.797600  1.0  0.6891
  C  C401  1  0.176600  0.389100  0.823400  1.0  -0.1564
  C  C402  1  0.202400  0.432500  0.797600  1.0  0.6897
  C  C403  1  0.823400  0.889100  0.676600  1.0  -0.1563
  C  C404  1  0.797600  0.932500  0.702400  1.0  0.6892
  C  C405  1  0.823400  0.389100  0.176600  1.0  -0.1563
  C  C406  1  0.797600  0.432500  0.202400  1.0  0.6892
  C  C407  1  0.176600  0.110900  0.676600  1.0  -0.1564
  C  C408  1  0.202400  0.067500  0.702400  1.0  0.6892
  C  C409  1  0.110900  0.676600  0.176600  1.0  -0.1566
  C  C410  1  0.067500  0.702400  0.202400  1.0  0.6891
  C  C411  1  0.610900  0.676600  0.676600  1.0  -0.1566
  C  C412  1  0.567500  0.702400  0.702400  1.0  0.6891
  C  C413  1  0.889100  0.676600  0.823400  1.0  -0.156
  C  C414  1  0.932500  0.702400  0.797600  1.0  0.6894
  C  C415  1  0.389100  0.676600  0.323400  1.0  -0.156
  C  C416  1  0.432500  0.702400  0.297600  1.0  0.6894
  C  C417  1  0.389100  0.323400  0.676600  1.0  -0.1563
  C  C418  1  0.432500  0.297600  0.702400  1.0  0.689
  C  C419  1  0.110900  0.323400  0.823400  1.0  -0.1568
  C  C420  1  0.067500  0.297600  0.797600  1.0  0.6889
  C  C421  1  0.676600  0.823400  0.889100  1.0  -0.1582
  C  C422  1  0.702400  0.797600  0.932500  1.0  0.6904
  C  C423  1  0.676600  0.323400  0.389100  1.0  -0.1582
  C  C424  1  0.702400  0.297600  0.432500  1.0  0.6904
  C  C425  1  0.676600  0.176600  0.110900  1.0  -0.1577
  C  C426  1  0.702400  0.202400  0.067500  1.0  0.6911
  C  C427  1  0.676600  0.676600  0.610900  1.0  -0.1577
  C  C428  1  0.702400  0.702400  0.567500  1.0  0.6911
  C  C429  1  0.323400  0.823400  0.110900  1.0  -0.1578
  C  C430  1  0.297600  0.797600  0.067500  1.0  0.6903
  C  C431  1  0.323400  0.676600  0.389100  1.0  -0.1579
  C  C432  1  0.297600  0.702400  0.432500  1.0  0.6905
  O  O433  1  0.947600  0.183000  0.256800  1.0  -0.5591
  O  O434  1  0.947600  0.683000  0.756800  1.0  -0.5591
  O  O435  1  0.447600  0.183000  0.756800  1.0  -0.5591
  O  O436  1  0.447600  0.683000  0.256800  1.0  -0.5591
  O  O437  1  0.052400  0.817000  0.256800  1.0  -0.5595
  O  O438  1  0.052400  0.317000  0.756800  1.0  -0.5596
  O  O439  1  0.552400  0.817000  0.756800  1.0  -0.5596
  O  O440  1  0.552400  0.317000  0.256800  1.0  -0.5593
  O  O441  1  0.052400  0.183000  0.743200  1.0  -0.5589
  O  O442  1  0.052400  0.683000  0.243200  1.0  -0.5589
  O  O443  1  0.552400  0.183000  0.243200  1.0  -0.5589
  O  O444  1  0.552400  0.683000  0.743200  1.0  -0.5593
  O  O445  1  0.947600  0.817000  0.743200  1.0  -0.5601
  O  O446  1  0.947600  0.317000  0.243200  1.0  -0.5601
  O  O447  1  0.447600  0.817000  0.243200  1.0  -0.56
  O  O448  1  0.447600  0.317000  0.743200  1.0  -0.5601
  O  O449  1  0.256800  0.947600  0.183000  1.0  -0.5599
  O  O450  1  0.256800  0.447600  0.683000  1.0  -0.5598
  O  O451  1  0.756800  0.947600  0.683000  1.0  -0.5599
  O  O452  1  0.756800  0.447600  0.183000  1.0  -0.5599
  O  O453  1  0.256800  0.052400  0.817000  1.0  -0.5602
  O  O454  1  0.256800  0.552400  0.317000  1.0  -0.5601
  O  O455  1  0.756800  0.052400  0.317000  1.0  -0.5602
  O  O456  1  0.756800  0.552400  0.817000  1.0  -0.5602
  O  O457  1  0.743200  0.052400  0.183000  1.0  -0.5603
  O  O458  1  0.743200  0.552400  0.683000  1.0  -0.5603
  O  O459  1  0.243200  0.052400  0.683000  1.0  -0.5603
  O  O460  1  0.243200  0.552400  0.183000  1.0  -0.5602
  O  O461  1  0.743200  0.947600  0.817000  1.0  -0.5602
  O  O462  1  0.743200  0.447600  0.317000  1.0  -0.5602
  O  O463  1  0.243200  0.947600  0.317000  1.0  -0.5602
  O  O464  1  0.243200  0.447600  0.817000  1.0  -0.5601
  O  O465  1  0.183000  0.256800  0.947600  1.0  -0.5601
  O  O466  1  0.183000  0.756800  0.447600  1.0  -0.5601
  O  O467  1  0.683000  0.256800  0.447600  1.0  -0.5601
  O  O468  1  0.683000  0.756800  0.947600  1.0  -0.5601
  O  O469  1  0.817000  0.256800  0.052400  1.0  -0.5601
  O  O470  1  0.817000  0.756800  0.552400  1.0  -0.5601
  O  O471  1  0.317000  0.256800  0.552400  1.0  -0.5601
  O  O472  1  0.317000  0.756800  0.052400  1.0  -0.5601
  O  O473  1  0.183000  0.743200  0.052400  1.0  -0.5609
  O  O474  1  0.183000  0.243200  0.552400  1.0  -0.5609
  O  O475  1  0.683000  0.743200  0.552400  1.0  -0.5611
  O  O476  1  0.683000  0.243200  0.052400  1.0  -0.5609
  O  O477  1  0.817000  0.743200  0.947600  1.0  -0.5606
  O  O478  1  0.817000  0.243200  0.447600  1.0  -0.5606
  O  O479  1  0.317000  0.743200  0.447600  1.0  -0.5606
  O  O480  1  0.317000  0.243200  0.947600  1.0  -0.5606
  O  O481  1  0.183000  0.947600  0.743200  1.0  -0.5597
  O  O482  1  0.183000  0.447600  0.243200  1.0  -0.5596
  O  O483  1  0.683000  0.947600  0.243200  1.0  -0.5596
  O  O484  1  0.683000  0.447600  0.743200  1.0  -0.5597
  O  O485  1  0.817000  0.052400  0.743200  1.0  -0.5598
  O  O486  1  0.817000  0.552400  0.243200  1.0  -0.5596
  O  O487  1  0.317000  0.052400  0.243200  1.0  -0.5597
  O  O488  1  0.317000  0.552400  0.743200  1.0  -0.5596
  O  O489  1  0.183000  0.052400  0.256800  1.0  -0.5596
  O  O490  1  0.183000  0.552400  0.756800  1.0  -0.5594
  O  O491  1  0.683000  0.052400  0.756800  1.0  -0.5596
  O  O492  1  0.683000  0.552400  0.256800  1.0  -0.5594
  O  O493  1  0.817000  0.947600  0.256800  1.0  -0.5588
  O  O494  1  0.817000  0.447600  0.756800  1.0  -0.5589
  O  O495  1  0.317000  0.947600  0.756800  1.0  -0.5588
  O  O496  1  0.317000  0.447600  0.256800  1.0  -0.5588
  O  O497  1  0.947600  0.256800  0.817000  1.0  -0.5601
  O  O498  1  0.947600  0.756800  0.317000  1.0  -0.5604
  O  O499  1  0.447600  0.256800  0.317000  1.0  -0.5602
  O  O500  1  0.447600  0.756800  0.817000  1.0  -0.5604
  O  O501  1  0.052400  0.256800  0.183000  1.0  -0.5604
  O  O502  1  0.052400  0.756800  0.683000  1.0  -0.5606
  O  O503  1  0.552400  0.256800  0.683000  1.0  -0.5604
  O  O504  1  0.552400  0.756800  0.183000  1.0  -0.5605
  O  O505  1  0.052400  0.743200  0.817000  1.0  -0.5604
  O  O506  1  0.052400  0.243200  0.317000  1.0  -0.5602
  O  O507  1  0.552400  0.743200  0.317000  1.0  -0.5605
  O  O508  1  0.552400  0.243200  0.817000  1.0  -0.5601
  O  O509  1  0.947600  0.743200  0.183000  1.0  -0.5603
  O  O510  1  0.947600  0.243200  0.683000  1.0  -0.5601
  O  O511  1  0.447600  0.743200  0.683000  1.0  -0.5603
  O  O512  1  0.447600  0.243200  0.183000  1.0  -0.5603
  O  O513  1  0.256800  0.183000  0.052400  1.0  -0.5602
  O  O514  1  0.256800  0.683000  0.552400  1.0  -0.5601
  O  O515  1  0.756800  0.183000  0.552400  1.0  -0.5602
  O  O516  1  0.756800  0.683000  0.052400  1.0  -0.5602
  O  O517  1  0.256800  0.817000  0.947600  1.0  -0.5604
  O  O518  1  0.256800  0.317000  0.447600  1.0  -0.5605
  O  O519  1  0.756800  0.817000  0.447600  1.0  -0.5606
  O  O520  1  0.756800  0.317000  0.947600  1.0  -0.5606
  O  O521  1  0.743200  0.183000  0.947600  1.0  -0.5599
  O  O522  1  0.743200  0.683000  0.447600  1.0  -0.5599
  O  O523  1  0.243200  0.183000  0.447600  1.0  -0.5599
  O  O524  1  0.243200  0.683000  0.947600  1.0  -0.5599
  O  O525  1  0.743200  0.817000  0.052400  1.0  -0.5607
  O  O526  1  0.743200  0.317000  0.552400  1.0  -0.5607
  O  O527  1  0.243200  0.817000  0.552400  1.0  -0.5606
  O  O528  1  0.243200  0.317000  0.052400  1.0  -0.5606
  O  O529  1  0.052400  0.817000  0.743200  1.0  -0.5605
  O  O530  1  0.052400  0.317000  0.243200  1.0  -0.5602
  O  O531  1  0.552400  0.817000  0.243200  1.0  -0.5605
  O  O532  1  0.552400  0.317000  0.743200  1.0  -0.5605
  O  O533  1  0.947600  0.183000  0.743200  1.0  -0.5594
  O  O534  1  0.947600  0.683000  0.243200  1.0  -0.5593
  O  O535  1  0.447600  0.183000  0.243200  1.0  -0.5593
  O  O536  1  0.447600  0.683000  0.743200  1.0  -0.5594
  O  O537  1  0.947600  0.817000  0.256800  1.0  -0.5593
  O  O538  1  0.947600  0.317000  0.756800  1.0  -0.5593
  O  O539  1  0.447600  0.817000  0.756800  1.0  -0.5593
  O  O540  1  0.447600  0.317000  0.256800  1.0  -0.5591
  O  O541  1  0.052400  0.183000  0.256800  1.0  -0.5588
  O  O542  1  0.052400  0.683000  0.756800  1.0  -0.5588
  O  O543  1  0.552400  0.183000  0.756800  1.0  -0.5588
  O  O544  1  0.552400  0.683000  0.256800  1.0  -0.5591
  O  O545  1  0.743200  0.052400  0.817000  1.0  -0.5602
  O  O546  1  0.743200  0.552400  0.317000  1.0  -0.5602
  O  O547  1  0.243200  0.052400  0.317000  1.0  -0.5602
  O  O548  1  0.243200  0.552400  0.817000  1.0  -0.56
  O  O549  1  0.743200  0.947600  0.183000  1.0  -0.5601
  O  O550  1  0.743200  0.447600  0.683000  1.0  -0.5601
  O  O551  1  0.243200  0.947600  0.683000  1.0  -0.5601
  O  O552  1  0.243200  0.447600  0.183000  1.0  -0.56
  O  O553  1  0.256800  0.947600  0.817000  1.0  -0.5602
  O  O554  1  0.256800  0.447600  0.317000  1.0  -0.5602
  O  O555  1  0.756800  0.947600  0.317000  1.0  -0.5602
  O  O556  1  0.756800  0.447600  0.817000  1.0  -0.5602
  O  O557  1  0.256800  0.052400  0.183000  1.0  -0.56
  O  O558  1  0.256800  0.552400  0.683000  1.0  -0.56
  O  O559  1  0.756800  0.052400  0.683000  1.0  -0.5601
  O  O560  1  0.756800  0.552400  0.183000  1.0  -0.5601
  O  O561  1  0.817000  0.743200  0.052400  1.0  -0.5604
  O  O562  1  0.817000  0.243200  0.552400  1.0  -0.5604
  O  O563  1  0.317000  0.743200  0.552400  1.0  -0.5604
  O  O564  1  0.317000  0.243200  0.052400  1.0  -0.5604
  O  O565  1  0.183000  0.743200  0.947600  1.0  -0.5612
  O  O566  1  0.183000  0.243200  0.447600  1.0  -0.5612
  O  O567  1  0.683000  0.743200  0.447600  1.0  -0.5612
  O  O568  1  0.683000  0.243200  0.947600  1.0  -0.5612
  O  O569  1  0.817000  0.256800  0.947600  1.0  -0.5602
  O  O570  1  0.817000  0.756800  0.447600  1.0  -0.5602
  O  O571  1  0.317000  0.256800  0.447600  1.0  -0.56
  O  O572  1  0.317000  0.756800  0.947600  1.0  -0.5602
  O  O573  1  0.183000  0.256800  0.052400  1.0  -0.5602
  O  O574  1  0.183000  0.756800  0.552400  1.0  -0.5602
  O  O575  1  0.683000  0.256800  0.552400  1.0  -0.5602
  O  O576  1  0.683000  0.756800  0.052400  1.0  -0.5602
  O  O577  1  0.817000  0.052400  0.256800  1.0  -0.5591
  O  O578  1  0.817000  0.552400  0.756800  1.0  -0.5591
  O  O579  1  0.317000  0.052400  0.756800  1.0  -0.5591
  O  O580  1  0.317000  0.552400  0.256800  1.0  -0.5591
  O  O581  1  0.183000  0.947600  0.256800  1.0  -0.5594
  O  O582  1  0.183000  0.447600  0.756800  1.0  -0.5594
  O  O583  1  0.683000  0.947600  0.756800  1.0  -0.5594
  O  O584  1  0.683000  0.447600  0.256800  1.0  -0.5592
  O  O585  1  0.817000  0.947600  0.743200  1.0  -0.5598
  O  O586  1  0.817000  0.447600  0.243200  1.0  -0.5597
  O  O587  1  0.317000  0.947600  0.243200  1.0  -0.5597
  O  O588  1  0.317000  0.447600  0.743200  1.0  -0.5598
  O  O589  1  0.183000  0.052400  0.743200  1.0  -0.5596
  O  O590  1  0.183000  0.552400  0.243200  1.0  -0.5593
  O  O591  1  0.683000  0.052400  0.243200  1.0  -0.5593
  O  O592  1  0.683000  0.552400  0.743200  1.0  -0.5596
  O  O593  1  0.052400  0.743200  0.183000  1.0  -0.5604
  O  O594  1  0.052400  0.243200  0.683000  1.0  -0.5603
  O  O595  1  0.552400  0.743200  0.683000  1.0  -0.5605
  O  O596  1  0.552400  0.243200  0.183000  1.0  -0.5605
  O  O597  1  0.947600  0.743200  0.817000  1.0  -0.5601
  O  O598  1  0.947600  0.243200  0.317000  1.0  -0.5601
  O  O599  1  0.447600  0.743200  0.317000  1.0  -0.5601
  O  O600  1  0.447600  0.243200  0.817000  1.0  -0.5601
  O  O601  1  0.947600  0.256800  0.183000  1.0  -0.5603
  O  O602  1  0.947600  0.756800  0.683000  1.0  -0.5603
  O  O603  1  0.447600  0.256800  0.683000  1.0  -0.5601
  O  O604  1  0.447600  0.756800  0.183000  1.0  -0.5603
  O  O605  1  0.052400  0.256800  0.817000  1.0  -0.5604
  O  O606  1  0.052400  0.756800  0.317000  1.0  -0.5605
  O  O607  1  0.552400  0.256800  0.317000  1.0  -0.5604
  O  O608  1  0.552400  0.756800  0.817000  1.0  -0.5604
  O  O609  1  0.743200  0.817000  0.947600  1.0  -0.5607
  O  O610  1  0.743200  0.317000  0.447600  1.0  -0.5607
  O  O611  1  0.243200  0.817000  0.447600  1.0  -0.5606
  O  O612  1  0.243200  0.317000  0.947600  1.0  -0.5606
  O  O613  1  0.743200  0.183000  0.052400  1.0  -0.56
  O  O614  1  0.743200  0.683000  0.552400  1.0  -0.5601
  O  O615  1  0.243200  0.183000  0.552400  1.0  -0.56
  O  O616  1  0.243200  0.683000  0.052400  1.0  -0.56
  O  O617  1  0.256800  0.817000  0.052400  1.0  -0.5605
  O  O618  1  0.256800  0.317000  0.552400  1.0  -0.5605
  O  O619  1  0.756800  0.817000  0.552400  1.0  -0.5606
  O  O620  1  0.756800  0.317000  0.052400  1.0  -0.5606
  O  O621  1  0.256800  0.183000  0.947600  1.0  -0.5599
  O  O622  1  0.256800  0.683000  0.447600  1.0  -0.5599
  O  O623  1  0.756800  0.183000  0.447600  1.0  -0.5601
  O  O624  1  0.756800  0.683000  0.947600  1.0  -0.5601
