# generated using pymatgen
data_Li2Fe(CO2)6
_symmetry_space_group_name_H-M   'P 1'
_cell_length_a   7.89200000
_cell_length_b   9.27200000
_cell_length_c   11.94200000
_cell_angle_alpha   104.75000000
_cell_angle_beta   101.69000000
_cell_angle_gamma   107.92000000
_symmetry_Int_Tables_number   1
_chemical_formula_structural   Li2Fe(CO2)6
_chemical_formula_sum   'Li4 Fe2 C12 O24'
_cell_volume   765.65880790
_cell_formula_units_Z   2
loop_
 _symmetry_equiv_pos_site_id
 _symmetry_equiv_pos_as_xyz
  1  'x, y, z'
loop_
 _atom_site_type_symbol
 _atom_site_label
 _atom_site_symmetry_multiplicity
 _atom_site_fract_x
 _atom_site_fract_y
 _atom_site_fract_z
 _atom_site_occupancy
 _atom_site_charge
  Li  Li1  1  0.435100  0.935100  0.602200  1.0  0.9148
  Li  Li2  1  0.473900  0.928000  0.103000  1.0  0.9231
  Li  Li3  1  0.564900  0.064900  0.397800  1.0  0.9048
  Li  Li4  1  0.526100  0.072000  0.897000  1.0  0.9246
  Fe  Fe5  1  0.791140  0.586050  0.773760  1.0  1.0389
  Fe  Fe6  1  0.208860  0.413950  0.226240  1.0  1.041
  C  C7  1  0.544400  0.270400  0.713800  1.0  0.5608
  C  C8  1  0.706000  0.256000  0.664000  1.0  0.5509
  C  C9  1  0.162400  0.800200  0.898700  1.0  0.5972
  C  C10  1  0.091800  0.726800  0.990600  1.0  0.5458
  C  C11  1  0.615000  0.802200  0.750800  1.0  0.6203
  C  C12  1  0.621500  0.722000  0.622600  1.0  0.558
  C  C13  1  0.455600  0.729600  0.286200  1.0  0.5601
  C  C14  1  0.294000  0.744000  0.336000  1.0  0.5518
  C  C15  1  0.837600  0.199800  0.101300  1.0  0.5961
  C  C16  1  0.908200  0.273200  0.009400  1.0  0.5474
  C  C17  1  0.385000  0.197800  0.249200  1.0  0.6222
  C  C18  1  0.378500  0.278000  0.377400  1.0  0.5545
  O  O19  1  0.560700  0.413200  0.767800  1.0  -0.4517
  O  O20  1  0.842600  0.390400  0.690400  1.0  -0.5363
  O  O21  1  0.414500  0.145400  0.699100  1.0  -0.5658
  O  O22  1  0.693300  0.121800  0.603500  1.0  -0.5818
  O  O23  1  0.047800  0.740700  0.790900  1.0  -0.4594
  O  O24  1  0.920400  0.626500  0.948400  1.0  -0.4462
  O  O25  1  0.318000  0.907400  0.933300  1.0  -0.6498
  O  O26  1  0.197900  0.767500  0.092800  1.0  -0.5163
  O  O27  1  0.689200  0.756100  0.833400  1.0  -0.4671
  O  O28  1  0.701300  0.619700  0.616600  1.0  -0.4374
  O  O29  1  0.542600  0.902700  0.764100  1.0  -0.6648
  O  O30  1  0.553800  0.760700  0.538800  1.0  -0.5176
  O  O31  1  0.439300  0.586800  0.232200  1.0  -0.4786
  O  O32  1  0.157400  0.609600  0.309600  1.0  -0.5375
  O  O33  1  0.585500  0.854600  0.300900  1.0  -0.5662
  O  O34  1  0.306700  0.878200  0.396500  1.0  -0.5813
  O  O35  1  0.952200  0.259300  0.209100  1.0  -0.4617
  O  O36  1  0.079600  0.373500  0.051600  1.0  -0.4475
  O  O37  1  0.682000  0.092600  0.066700  1.0  -0.6481
  O  O38  1  0.802100  0.232500  0.907200  1.0  -0.5162
  O  O39  1  0.310800  0.243900  0.166600  1.0  -0.4651
  O  O40  1  0.298700  0.380300  0.383400  1.0  -0.4333
  O  O41  1  0.457400  0.097300  0.235900  1.0  -0.6644
  O  O42  1  0.446200  0.239300  0.461200  1.0  -0.5181
