# generated using pymatgen
data_Y3H6(C3O4)4
_symmetry_space_group_name_H-M   'P 1'
_cell_length_a   18.53530000
_cell_length_b   18.53530000
_cell_length_c   18.53530000
_cell_angle_alpha   90.00000000
_cell_angle_beta   90.00000000
_cell_angle_gamma   90.00000000
_symmetry_Int_Tables_number   1
_chemical_formula_structural   Y3H6(C3O4)4
_chemical_formula_sum   'Y24 H48 C96 O128'
_cell_volume   6367.93847698
_cell_formula_units_Z   8
loop_
 _symmetry_equiv_pos_site_id
 _symmetry_equiv_pos_as_xyz
  1  'x, y, z'
loop_
 _atom_site_type_symbol
 _atom_site_label
 _atom_site_symmetry_multiplicity
 _atom_site_fract_x
 _atom_site_fract_y
 _atom_site_fract_z
 _atom_site_occupancy
 _atom_site_charge
  Y  Y1  1  0.986830  0.487700  0.853580  1.0  2.1428
  Y  Y2  1  0.513170  0.012300  0.853580  1.0  2.1418
  Y  Y3  1  0.513170  0.487700  0.646420  1.0  2.1409
  Y  Y4  1  0.986830  0.012300  0.646420  1.0  2.141
  Y  Y5  1  0.853580  0.986830  0.487700  1.0  2.151
  Y  Y6  1  0.853580  0.513170  0.012300  1.0  2.1507
  Y  Y7  1  0.646420  0.513170  0.487700  1.0  2.1514
  Y  Y8  1  0.646420  0.986830  0.012300  1.0  2.1514
  Y  Y9  1  0.487700  0.853580  0.986830  1.0  2.1463
  Y  Y10  1  0.012300  0.853580  0.513170  1.0  2.1457
  Y  Y11  1  0.487700  0.646420  0.513170  1.0  2.1408
  Y  Y12  1  0.012300  0.646420  0.986830  1.0  2.1406
  Y  Y13  1  0.013170  0.512300  0.146420  1.0  2.1396
  Y  Y14  1  0.486830  0.987700  0.146420  1.0  2.1407
  Y  Y15  1  0.486830  0.512300  0.353580  1.0  2.1418
  Y  Y16  1  0.013170  0.987700  0.353580  1.0  2.1417
  Y  Y17  1  0.146420  0.013170  0.512300  1.0  2.1434
  Y  Y18  1  0.146420  0.486830  0.987700  1.0  2.144
  Y  Y19  1  0.353580  0.486830  0.512300  1.0  2.1436
  Y  Y20  1  0.353580  0.013170  0.987700  1.0  2.1433
  Y  Y21  1  0.512300  0.146420  0.013170  1.0  2.1407
  Y  Y22  1  0.987700  0.146420  0.486830  1.0  2.1411
  Y  Y23  1  0.512300  0.353580  0.486830  1.0  2.1464
  Y  Y24  1  0.987700  0.353580  0.013170  1.0  2.1462
  H  H25  1  0.697600  0.501400  0.802900  1.0  0.1827
  H  H26  1  0.973900  0.199100  0.803800  1.0  0.1848
  H  H27  1  0.802400  0.998600  0.802900  1.0  0.1827
  H  H28  1  0.526100  0.300900  0.803800  1.0  0.1824
  H  H29  1  0.802400  0.501400  0.697100  1.0  0.1816
  H  H30  1  0.526100  0.199100  0.696200  1.0  0.1839
  H  H31  1  0.697600  0.998600  0.697100  1.0  0.1816
  H  H32  1  0.973900  0.300900  0.696200  1.0  0.1823
  H  H33  1  0.802900  0.697600  0.501400  1.0  0.1826
  H  H34  1  0.803800  0.973900  0.199100  1.0  0.1838
  H  H35  1  0.802900  0.802400  0.998600  1.0  0.1815
  H  H36  1  0.803800  0.526100  0.300900  1.0  0.1836
  H  H37  1  0.697100  0.802400  0.501400  1.0  0.1813
  H  H38  1  0.696200  0.526100  0.199100  1.0  0.1834
  H  H39  1  0.697100  0.697600  0.998600  1.0  0.1821
  H  H40  1  0.696200  0.973900  0.300900  1.0  0.1838
  H  H41  1  0.501400  0.802900  0.697600  1.0  0.1823
  H  H42  1  0.199100  0.803800  0.973900  1.0  0.1825
  H  H43  1  0.998600  0.802900  0.802400  1.0  0.1816
  H  H44  1  0.300900  0.803800  0.526100  1.0  0.1825
  H  H45  1  0.501400  0.697100  0.802400  1.0  0.1815
  H  H46  1  0.199100  0.696200  0.526100  1.0  0.1827
  H  H47  1  0.998600  0.697100  0.697600  1.0  0.1823
  H  H48  1  0.300900  0.696200  0.973900  1.0  0.1827
  H  H49  1  0.302400  0.498600  0.197100  1.0  0.1816
  H  H50  1  0.026100  0.800900  0.196200  1.0  0.1822
  H  H51  1  0.197600  0.001400  0.197100  1.0  0.1816
  H  H52  1  0.473900  0.699100  0.196200  1.0  0.184
  H  H53  1  0.197600  0.498600  0.302900  1.0  0.1828
  H  H54  1  0.473900  0.800900  0.303800  1.0  0.1826
  H  H55  1  0.302400  0.001400  0.302900  1.0  0.1827
  H  H56  1  0.026100  0.699100  0.303800  1.0  0.1846
  H  H57  1  0.197100  0.302400  0.498600  1.0  0.1813
  H  H58  1  0.196200  0.026100  0.800900  1.0  0.1836
  H  H59  1  0.197100  0.197600  0.001400  1.0  0.1822
  H  H60  1  0.196200  0.473900  0.699100  1.0  0.1835
  H  H61  1  0.302900  0.197600  0.498600  1.0  0.1825
  H  H62  1  0.303800  0.473900  0.800900  1.0  0.1837
  H  H63  1  0.302900  0.302400  0.001400  1.0  0.1816
  H  H64  1  0.303800  0.026100  0.699100  1.0  0.1838
  H  H65  1  0.498600  0.197100  0.302400  1.0  0.1816
  H  H66  1  0.800900  0.196200  0.026100  1.0  0.1824
  H  H67  1  0.001400  0.197100  0.197600  1.0  0.1822
  H  H68  1  0.699100  0.196200  0.473900  1.0  0.1829
  H  H69  1  0.498600  0.302900  0.197600  1.0  0.1823
  H  H70  1  0.800900  0.303800  0.473900  1.0  0.1828
  H  H71  1  0.001400  0.302900  0.302400  1.0  0.1816
  H  H72  1  0.699100  0.303800  0.026100  1.0  0.1824
  C  C73  1  0.976600  0.309000  0.838000  1.0  0.7768
  C  C74  1  0.744600  0.501400  0.785500  1.0  -0.133
  C  C75  1  0.975000  0.245700  0.785300  1.0  -0.1302
  C  C76  1  0.806200  0.501300  0.838700  1.0  0.751
  C  C77  1  0.523400  0.191000  0.838000  1.0  0.7777
  C  C78  1  0.755400  0.998600  0.785500  1.0  -0.1318
  C  C79  1  0.525000  0.254300  0.785300  1.0  -0.1331
  C  C80  1  0.693800  0.998700  0.838700  1.0  0.754
  C  C81  1  0.523400  0.309000  0.662000  1.0  0.7772
  C  C82  1  0.755400  0.501400  0.714500  1.0  -0.132
  C  C83  1  0.525000  0.245700  0.714700  1.0  -0.1309
  C  C84  1  0.693800  0.501300  0.661300  1.0  0.7522
  C  C85  1  0.976600  0.191000  0.662000  1.0  0.7774
  C  C86  1  0.744600  0.998600  0.714500  1.0  -0.1324
  C  C87  1  0.975000  0.254300  0.714700  1.0  -0.1332
  C  C88  1  0.806200  0.998700  0.661300  1.0  0.7501
  C  C89  1  0.838000  0.976600  0.309000  1.0  0.7745
  C  C90  1  0.785500  0.744600  0.501400  1.0  -0.1311
  C  C91  1  0.785300  0.975000  0.245700  1.0  -0.1296
  C  C92  1  0.838700  0.806200  0.501300  1.0  0.7489
  C  C93  1  0.838000  0.523400  0.191000  1.0  0.7734
  C  C94  1  0.785500  0.755400  0.998600  1.0  -0.1315
  C  C95  1  0.785300  0.525000  0.254300  1.0  -0.1291
  C  C96  1  0.838700  0.693800  0.998700  1.0  0.7487
  C  C97  1  0.662000  0.523400  0.309000  1.0  0.7739
  C  C98  1  0.714500  0.755400  0.501400  1.0  -0.132
  C  C99  1  0.714700  0.525000  0.245700  1.0  -0.1317
  C  C100  1  0.661300  0.693800  0.501300  1.0  0.7498
  C  C101  1  0.662000  0.976600  0.191000  1.0  0.7736
  C  C102  1  0.714500  0.744600  0.998600  1.0  -0.132
  C  C103  1  0.714700  0.975000  0.254300  1.0  -0.1313
  C  C104  1  0.661300  0.806200  0.998700  1.0  0.75
  C  C105  1  0.309000  0.838000  0.976600  1.0  0.7762
  C  C106  1  0.501400  0.785500  0.744600  1.0  -0.1302
  C  C107  1  0.245700  0.785300  0.975000  1.0  -0.1308
  C  C108  1  0.501300  0.838700  0.806200  1.0  0.7484
  C  C109  1  0.191000  0.838000  0.523400  1.0  0.7745
  C  C110  1  0.998600  0.785500  0.755400  1.0  -0.1288
  C  C111  1  0.254300  0.785300  0.525000  1.0  -0.1302
  C  C112  1  0.998700  0.838700  0.693800  1.0  0.7482
  C  C113  1  0.309000  0.662000  0.523400  1.0  0.7747
  C  C114  1  0.501400  0.714500  0.755400  1.0  -0.1286
  C  C115  1  0.245700  0.714700  0.525000  1.0  -0.1308
  C  C116  1  0.501300  0.661300  0.693800  1.0  0.7476
  C  C117  1  0.191000  0.662000  0.976600  1.0  0.7737
  C  C118  1  0.998600  0.714500  0.744600  1.0  -0.1308
  C  C119  1  0.254300  0.714700  0.975000  1.0  -0.1294
  C  C120  1  0.998700  0.661300  0.806200  1.0  0.7482
  C  C121  1  0.023400  0.691000  0.162000  1.0  0.7778
  C  C122  1  0.255400  0.498600  0.214500  1.0  -0.1316
  C  C123  1  0.025000  0.754300  0.214700  1.0  -0.1329
  C  C124  1  0.193800  0.498700  0.161300  1.0  0.7522
  C  C125  1  0.476600  0.809000  0.162000  1.0  0.7769
  C  C126  1  0.244600  0.001400  0.214500  1.0  -0.1319
  C  C127  1  0.475000  0.745700  0.214700  1.0  -0.1303
  C  C128  1  0.306200  0.001300  0.161300  1.0  0.75
  C  C129  1  0.476600  0.691000  0.338000  1.0  0.7772
  C  C130  1  0.244600  0.498600  0.285500  1.0  -0.1335
  C  C131  1  0.475000  0.754300  0.285300  1.0  -0.1336
  C  C132  1  0.306200  0.498700  0.338700  1.0  0.751
  C  C133  1  0.023400  0.809000  0.338000  1.0  0.7773
  C  C134  1  0.255400  0.001400  0.285500  1.0  -0.1322
  C  C135  1  0.025000  0.745700  0.285300  1.0  -0.1306
  C  C136  1  0.193800  0.001300  0.338700  1.0  0.754
  C  C137  1  0.162000  0.023400  0.691000  1.0  0.7736
  C  C138  1  0.214500  0.255400  0.498600  1.0  -0.1313
  C  C139  1  0.214700  0.025000  0.754300  1.0  -0.1312
  C  C140  1  0.161300  0.193800  0.498700  1.0  0.7497
  C  C141  1  0.162000  0.476600  0.809000  1.0  0.7739
  C  C142  1  0.214500  0.244600  0.001400  1.0  -0.1318
  C  C143  1  0.214700  0.475000  0.745700  1.0  -0.1313
  C  C144  1  0.161300  0.306200  0.001300  1.0  0.75
  C  C145  1  0.338000  0.476600  0.691000  1.0  0.7734
  C  C146  1  0.285500  0.244600  0.498600  1.0  -0.1313
  C  C147  1  0.285300  0.475000  0.754300  1.0  -0.1294
  C  C148  1  0.338700  0.306200  0.498700  1.0  0.7488
  C  C149  1  0.338000  0.023400  0.809000  1.0  0.7745
  C  C150  1  0.285500  0.255400  0.001400  1.0  -0.1322
  C  C151  1  0.285300  0.025000  0.745700  1.0  -0.1302
  C  C152  1  0.338700  0.193800  0.001300  1.0  0.7488
  C  C153  1  0.691000  0.162000  0.023400  1.0  0.7734
  C  C154  1  0.498600  0.214500  0.255400  1.0  -0.128
  C  C155  1  0.754300  0.214700  0.025000  1.0  -0.1297
  C  C156  1  0.498700  0.161300  0.193800  1.0  0.7476
  C  C157  1  0.809000  0.162000  0.476600  1.0  0.7751
  C  C158  1  0.001400  0.214500  0.244600  1.0  -0.1299
  C  C159  1  0.745700  0.214700  0.475000  1.0  -0.1296
  C  C160  1  0.001300  0.161300  0.306200  1.0  0.7482
  C  C161  1  0.691000  0.338000  0.476600  1.0  0.7747
  C  C162  1  0.498600  0.285500  0.244600  1.0  -0.131
  C  C163  1  0.754300  0.285300  0.475000  1.0  -0.1302
  C  C164  1  0.498700  0.338700  0.306200  1.0  0.7484
  C  C165  1  0.809000  0.338000  0.023400  1.0  0.7758
  C  C166  1  0.001400  0.285500  0.255400  1.0  -0.1295
  C  C167  1  0.745700  0.285300  0.025000  1.0  -0.1315
  C  C168  1  0.001300  0.338700  0.193800  1.0  0.7481
  O  O169  1  0.067400  0.555500  0.920400  1.0  -1.0031
  O  O170  1  0.976100  0.291100  0.905600  1.0  -0.6089
  O  O171  1  0.789700  0.510000  0.904400  1.0  -0.6129
  O  O172  1  0.869100  0.493200  0.811400  1.0  -0.581
  O  O173  1  0.975800  0.370000  0.811200  1.0  -0.6122
  O  O174  1  0.432600  0.944500  0.920400  1.0  -1.0032
  O  O175  1  0.523900  0.208900  0.905600  1.0  -0.6099
  O  O176  1  0.710300  0.990000  0.904400  1.0  -0.6129
  O  O177  1  0.630900  0.006800  0.811400  1.0  -0.5776
  O  O178  1  0.524200  0.130000  0.811200  1.0  -0.611
  O  O179  1  0.432600  0.555500  0.579600  1.0  -1.0038
  O  O180  1  0.523900  0.291100  0.594400  1.0  -0.6095
  O  O181  1  0.710300  0.510000  0.595600  1.0  -0.6135
  O  O182  1  0.630900  0.493200  0.688600  1.0  -0.5781
  O  O183  1  0.524200  0.370000  0.688800  1.0  -0.6108
  O  O184  1  0.067400  0.944500  0.579600  1.0  -1.0026
  O  O185  1  0.976100  0.208900  0.594400  1.0  -0.6092
  O  O186  1  0.789700  0.990000  0.595600  1.0  -0.6132
  O  O187  1  0.869100  0.006800  0.688600  1.0  -0.5815
  O  O188  1  0.975800  0.130000  0.688800  1.0  -0.611
  O  O189  1  0.920400  0.067400  0.555500  1.0  -1.0049
  O  O190  1  0.905600  0.976100  0.291100  1.0  -0.6077
  O  O191  1  0.904400  0.789700  0.510000  1.0  -0.6093
  O  O192  1  0.811400  0.869100  0.493200  1.0  -0.5835
  O  O193  1  0.811200  0.975800  0.370000  1.0  -0.6134
  O  O194  1  0.920400  0.432600  0.944500  1.0  -1.0045
  O  O195  1  0.905600  0.523900  0.208900  1.0  -0.6073
  O  O196  1  0.904400  0.710300  0.990000  1.0  -0.6099
  O  O197  1  0.811400  0.630900  0.006800  1.0  -0.5849
  O  O198  1  0.811200  0.524200  0.130000  1.0  -0.6148
  O  O199  1  0.579600  0.432600  0.555500  1.0  -1.0034
  O  O200  1  0.594400  0.523900  0.291100  1.0  -0.6073
  O  O201  1  0.595600  0.710300  0.510000  1.0  -0.6091
  O  O202  1  0.688600  0.630900  0.493200  1.0  -0.5843
  O  O203  1  0.688800  0.524200  0.370000  1.0  -0.6133
  O  O204  1  0.579600  0.067400  0.944500  1.0  -1.004
  O  O205  1  0.594400  0.976100  0.208900  1.0  -0.608
  O  O206  1  0.595600  0.789700  0.990000  1.0  -0.6101
  O  O207  1  0.688600  0.869100  0.006800  1.0  -0.5833
  O  O208  1  0.688800  0.975800  0.130000  1.0  -0.6137
  O  O209  1  0.555500  0.920400  0.067400  1.0  -1.0033
  O  O210  1  0.291100  0.905600  0.976100  1.0  -0.6086
  O  O211  1  0.510000  0.904400  0.789700  1.0  -0.6084
  O  O212  1  0.493200  0.811400  0.869100  1.0  -0.5779
  O  O213  1  0.370000  0.811200  0.975800  1.0  -0.6098
  O  O214  1  0.944500  0.920400  0.432600  1.0  -1.0038
  O  O215  1  0.208900  0.905600  0.523900  1.0  -0.6088
  O  O216  1  0.990000  0.904400  0.710300  1.0  -0.6096
  O  O217  1  0.006800  0.811400  0.630900  1.0  -0.5767
  O  O218  1  0.130000  0.811200  0.524200  1.0  -0.6091
  O  O219  1  0.555500  0.579600  0.432600  1.0  -1.0043
  O  O220  1  0.291100  0.594400  0.523900  1.0  -0.6106
  O  O221  1  0.510000  0.595600  0.710300  1.0  -0.6096
  O  O222  1  0.493200  0.688600  0.630900  1.0  -0.5764
  O  O223  1  0.370000  0.688800  0.524200  1.0  -0.6102
  O  O224  1  0.944500  0.579600  0.067400  1.0  -1.004
  O  O225  1  0.208900  0.594400  0.976100  1.0  -0.6096
  O  O226  1  0.990000  0.595600  0.789700  1.0  -0.6084
  O  O227  1  0.006800  0.688600  0.869100  1.0  -0.5775
  O  O228  1  0.130000  0.688800  0.975800  1.0  -0.6091
  O  O229  1  0.932600  0.444500  0.079600  1.0  -1.0033
  O  O230  1  0.023900  0.708900  0.094400  1.0  -0.6094
  O  O231  1  0.210300  0.490000  0.095600  1.0  -0.6137
  O  O232  1  0.130900  0.506800  0.188600  1.0  -0.5782
  O  O233  1  0.024200  0.630000  0.188800  1.0  -0.6104
  O  O234  1  0.567400  0.055500  0.079600  1.0  -1.003
  O  O235  1  0.476100  0.791100  0.094400  1.0  -0.6094
  O  O236  1  0.289700  0.010000  0.095600  1.0  -0.6132
  O  O237  1  0.369100  0.993200  0.188600  1.0  -0.5812
  O  O238  1  0.475800  0.870000  0.188800  1.0  -0.611
  O  O239  1  0.567400  0.444500  0.420400  1.0  -1.0026
  O  O240  1  0.476100  0.708900  0.405600  1.0  -0.6096
  O  O241  1  0.289700  0.490000  0.404400  1.0  -0.6127
  O  O242  1  0.369100  0.506800  0.311400  1.0  -0.5806
  O  O243  1  0.475800  0.630000  0.311200  1.0  -0.6111
  O  O244  1  0.932600  0.055500  0.420400  1.0  -1.0038
  O  O245  1  0.023900  0.791100  0.405600  1.0  -0.6093
  O  O246  1  0.210300  0.010000  0.404400  1.0  -0.6129
  O  O247  1  0.130900  0.993200  0.311400  1.0  -0.5782
  O  O248  1  0.024200  0.870000  0.311200  1.0  -0.6117
  O  O249  1  0.079600  0.932600  0.444500  1.0  -1.0033
  O  O250  1  0.094400  0.023900  0.708900  1.0  -0.6082
  O  O251  1  0.095600  0.210300  0.490000  1.0  -0.6087
  O  O252  1  0.188600  0.130900  0.506800  1.0  -0.5847
  O  O253  1  0.188800  0.024200  0.630000  1.0  -0.6137
  O  O254  1  0.079600  0.567400  0.055500  1.0  -1.004
  O  O255  1  0.094400  0.476100  0.791100  1.0  -0.6072
  O  O256  1  0.095600  0.289700  0.010000  1.0  -0.6101
  O  O257  1  0.188600  0.369100  0.993200  1.0  -0.5832
  O  O258  1  0.188800  0.475800  0.870000  1.0  -0.613
  O  O259  1  0.420400  0.567400  0.444500  1.0  -1.005
  O  O260  1  0.405600  0.476100  0.708900  1.0  -0.6071
  O  O261  1  0.404400  0.289700  0.490000  1.0  -0.6094
  O  O262  1  0.311400  0.369100  0.506800  1.0  -0.5836
  O  O263  1  0.311200  0.475800  0.630000  1.0  -0.615
  O  O264  1  0.420400  0.932600  0.055500  1.0  -1.0045
  O  O265  1  0.405600  0.023900  0.791100  1.0  -0.6078
  O  O266  1  0.404400  0.210300  0.010000  1.0  -0.6103
  O  O267  1  0.311400  0.130900  0.993200  1.0  -0.5845
  O  O268  1  0.311200  0.024200  0.870000  1.0  -0.6138
  O  O269  1  0.444500  0.079600  0.932600  1.0  -1.0043
  O  O270  1  0.708900  0.094400  0.023900  1.0  -0.6102
  O  O271  1  0.490000  0.095600  0.210300  1.0  -0.6096
  O  O272  1  0.506800  0.188600  0.130900  1.0  -0.5765
  O  O273  1  0.630000  0.188800  0.024200  1.0  -0.6087
  O  O274  1  0.055500  0.079600  0.567400  1.0  -1.0037
  O  O275  1  0.791100  0.094400  0.476100  1.0  -0.6102
  O  O276  1  0.010000  0.095600  0.289700  1.0  -0.6082
  O  O277  1  0.993200  0.188600  0.369100  1.0  -0.5776
  O  O278  1  0.870000  0.188800  0.475800  1.0  -0.6097
  O  O279  1  0.444500  0.420400  0.567400  1.0  -1.0035
  O  O280  1  0.708900  0.405600  0.476100  1.0  -0.6083
  O  O281  1  0.490000  0.404400  0.289700  1.0  -0.6083
  O  O282  1  0.506800  0.311400  0.369100  1.0  -0.5779
  O  O283  1  0.630000  0.311200  0.475800  1.0  -0.6091
  O  O284  1  0.055500  0.420400  0.932600  1.0  -1.0038
  O  O285  1  0.791100  0.405600  0.023900  1.0  -0.6087
  O  O286  1  0.010000  0.404400  0.210300  1.0  -0.6096
  O  O287  1  0.993200  0.311400  0.130900  1.0  -0.5767
  O  O288  1  0.870000  0.311200  0.024200  1.0  -0.6102
  O  O289  1  0.932900  0.567100  0.932900  1.0  -1.0723
  O  O290  1  0.567100  0.932900  0.932900  1.0  -1.0724
  O  O291  1  0.567100  0.567100  0.567100  1.0  -1.0715
  O  O292  1  0.932900  0.932900  0.567100  1.0  -1.0726
  O  O293  1  0.067100  0.432900  0.067100  1.0  -1.0725
  O  O294  1  0.432900  0.067100  0.067100  1.0  -1.0718
  O  O295  1  0.432900  0.432900  0.432900  1.0  -1.0727
  O  O296  1  0.067100  0.067100  0.432900  1.0  -1.0719
