# generated using pymatgen
data_ScH6(CO)4
_symmetry_space_group_name_H-M   'P 1'
_cell_length_a   8.15840000
_cell_length_b   8.15840000
_cell_length_c   12.13990000
_cell_angle_alpha   90.00000000
_cell_angle_beta   90.00000000
_cell_angle_gamma   120.00000000
_symmetry_Int_Tables_number   1
_chemical_formula_structural   ScH6(CO)4
_chemical_formula_sum   'Sc3 H18 C12 O12'
_cell_volume   699.77066139
_cell_formula_units_Z   3
loop_
 _symmetry_equiv_pos_site_id
 _symmetry_equiv_pos_as_xyz
  1  'x, y, z'
loop_
 _atom_site_type_symbol
 _atom_site_label
 _atom_site_symmetry_multiplicity
 _atom_site_fract_x
 _atom_site_fract_y
 _atom_site_fract_z
 _atom_site_occupancy
 _atom_site_charge
  Sc  Sc1  1  0.416480  0.000000  0.666667  1.0  1.9622
  Sc  Sc2  1  0.000000  0.416480  0.333333  1.0  1.9606
  Sc  Sc3  1  0.583520  0.583520  0.000000  1.0  1.9603
  H  H4  1  0.354000  0.410200  0.593100  1.0  0.1051
  H  H5  1  0.263500  0.460800  0.695400  1.0  0.0971
  H  H6  1  0.471500  0.610800  0.653200  1.0  0.1026
  H  H7  1  0.589800  0.943800  0.259770  1.0  0.1046
  H  H8  1  0.539200  0.802700  0.362070  1.0  0.0955
  H  H9  1  0.389200  0.860700  0.319870  1.0  0.0992
  H  H10  1  0.056200  0.646000  0.926430  1.0  0.1037
  H  H11  1  0.197300  0.736500  0.028730  1.0  0.0973
  H  H12  1  0.139300  0.528500  0.986530  1.0  0.1011
  H  H13  1  0.410200  0.354000  0.406900  1.0  0.1036
  H  H14  1  0.460800  0.263500  0.304600  1.0  0.0975
  H  H15  1  0.610800  0.471500  0.346800  1.0  0.1027
  H  H16  1  0.943800  0.589800  0.740230  1.0  0.1047
  H  H17  1  0.802700  0.539200  0.637930  1.0  0.0971
  H  H18  1  0.860700  0.389200  0.680130  1.0  0.1025
  H  H19  1  0.646000  0.056200  0.073570  1.0  0.105
  H  H20  1  0.736500  0.197300  0.971270  1.0  0.0957
  H  H21  1  0.528500  0.139300  0.013470  1.0  0.0992
  C  C22  1  0.262100  0.594700  0.553080  1.0  0.715
  C  C23  1  0.344900  0.512000  0.630400  1.0  -0.5167
  C  C24  1  0.405300  0.667400  0.219750  1.0  0.713
  C  C25  1  0.488000  0.832900  0.297070  1.0  -0.5164
  C  C26  1  0.332600  0.737900  0.886410  1.0  0.7148
  C  C27  1  0.167100  0.655100  0.963730  1.0  -0.5172
  C  C28  1  0.594700  0.262100  0.446920  1.0  0.7152
  C  C29  1  0.512000  0.344900  0.369600  1.0  -0.517
  C  C30  1  0.667400  0.405300  0.780250  1.0  0.715
  C  C31  1  0.832900  0.488000  0.702930  1.0  -0.517
  C  C32  1  0.737900  0.332600  0.113590  1.0  0.7134
  C  C33  1  0.655100  0.167100  0.036270  1.0  -0.5166
  O  O34  1  0.293400  0.761500  0.568510  1.0  -0.7542
  O  O35  1  0.162100  0.494200  0.474640  1.0  -0.726
  O  O36  1  0.238500  0.531900  0.235180  1.0  -0.7541
  O  O37  1  0.505800  0.667900  0.141310  1.0  -0.7251
  O  O38  1  0.468100  0.706600  0.901840  1.0  -0.7535
  O  O39  1  0.332100  0.837900  0.807970  1.0  -0.7273
  O  O40  1  0.761500  0.293400  0.431490  1.0  -0.7534
  O  O41  1  0.494200  0.162100  0.525360  1.0  -0.7275
  O  O42  1  0.531900  0.238500  0.764820  1.0  -0.7521
  O  O43  1  0.667900  0.505800  0.858690  1.0  -0.7267
  O  O44  1  0.706600  0.468100  0.098160  1.0  -0.7575
  O  O45  1  0.837900  0.332100  0.192030  1.0  -0.7256
