# generated using pymatgen
data_Cu3H28C40(NO)8
_symmetry_space_group_name_H-M   'P 1'
_cell_length_a   31.78640000
_cell_length_b   33.33950000
_cell_length_c   11.67730000
_cell_angle_alpha   90.00000000
_cell_angle_beta   90.00000000
_cell_angle_gamma   90.00000000
_symmetry_Int_Tables_number   1
_chemical_formula_structural   Cu3H28C40(NO)8
_chemical_formula_sum   'Cu12 H112 C160 N32 O32'
_cell_volume   12374.93322986
_cell_formula_units_Z   4
loop_
 _symmetry_equiv_pos_site_id
 _symmetry_equiv_pos_as_xyz
  1  'x, y, z'
loop_
 _atom_site_type_symbol
 _atom_site_label
 _atom_site_symmetry_multiplicity
 _atom_site_fract_x
 _atom_site_fract_y
 _atom_site_fract_z
 _atom_site_occupancy
 _atom_site_charge
  Cu  Cu1  1  0.500000  0.500000  0.000000  1.0  0.519
  Cu  Cu2  1  0.000000  0.000000  0.500000  1.0  0.519
  Cu  Cu3  1  0.500000  0.000000  0.000000  1.0  0.519
  Cu  Cu4  1  0.000000  0.500000  0.500000  1.0  0.519
  Cu  Cu5  1  0.773760  0.250000  0.843240  1.0  0.8941
  Cu  Cu6  1  0.273760  0.750000  0.343240  1.0  0.8941
  Cu  Cu7  1  0.226240  0.250000  0.843240  1.0  0.8934
  Cu  Cu8  1  0.726240  0.750000  0.343240  1.0  0.8934
  Cu  Cu9  1  0.226240  0.750000  0.156760  1.0  0.8933
  Cu  Cu10  1  0.726240  0.250000  0.656760  1.0  0.8933
  Cu  Cu11  1  0.773760  0.750000  0.156760  1.0  0.8927
  Cu  Cu12  1  0.273760  0.250000  0.656760  1.0  0.8927
  H  H13  1  0.564100  0.440000  0.905600  1.0  0.0875
  H  H14  1  0.704900  0.335200  0.046800  1.0  0.1
  H  H15  1  0.588100  0.381800  0.844800  1.0  0.1129
  H  H16  1  0.633500  0.335000  0.760800  1.0  0.1026
  H  H17  1  0.659700  0.382000  0.130400  1.0  0.1085
  H  H18  1  0.598500  0.409000  0.219500  1.0  0.1072
  H  H19  1  0.545400  0.462900  0.230300  1.0  0.0925
  H  H20  1  0.064100  0.940000  0.405600  1.0  0.0875
  H  H21  1  0.204900  0.835200  0.546800  1.0  0.1
  H  H22  1  0.088100  0.881800  0.344800  1.0  0.1129
  H  H23  1  0.133500  0.835000  0.260800  1.0  0.1026
  H  H24  1  0.159700  0.882000  0.630400  1.0  0.1085
  H  H25  1  0.098500  0.909000  0.719500  1.0  0.1072
  H  H26  1  0.045400  0.962900  0.730300  1.0  0.0925
  H  H27  1  0.435900  0.060000  0.905600  1.0  0.0873
  H  H28  1  0.295100  0.164800  0.046800  1.0  0.0997
  H  H29  1  0.411900  0.118200  0.844800  1.0  0.1133
  H  H30  1  0.366500  0.165000  0.760800  1.0  0.1031
  H  H31  1  0.340300  0.118000  0.130400  1.0  0.1089
  H  H32  1  0.401500  0.091000  0.219500  1.0  0.1072
  H  H33  1  0.454600  0.037100  0.230300  1.0  0.0934
  H  H34  1  0.935900  0.560000  0.405600  1.0  0.0873
  H  H35  1  0.795100  0.664800  0.546800  1.0  0.0997
  H  H36  1  0.911900  0.618200  0.344800  1.0  0.1133
  H  H37  1  0.866500  0.665000  0.260800  1.0  0.1031
  H  H38  1  0.840300  0.618000  0.630400  1.0  0.1089
  H  H39  1  0.901500  0.591000  0.719500  1.0  0.1072
  H  H40  1  0.954600  0.537100  0.730300  1.0  0.0934
  H  H41  1  0.435900  0.940000  0.094400  1.0  0.0877
  H  H42  1  0.295100  0.835200  0.953200  1.0  0.0999
  H  H43  1  0.411900  0.881800  0.155200  1.0  0.1132
  H  H44  1  0.366500  0.835000  0.239200  1.0  0.1024
  H  H45  1  0.340300  0.882000  0.869600  1.0  0.1087
  H  H46  1  0.401500  0.909000  0.780500  1.0  0.1067
  H  H47  1  0.454600  0.962900  0.769700  1.0  0.0941
  H  H48  1  0.935900  0.440000  0.594400  1.0  0.0877
  H  H49  1  0.795100  0.335200  0.453200  1.0  0.0999
  H  H50  1  0.911900  0.381800  0.655200  1.0  0.1132
  H  H51  1  0.866500  0.335000  0.739200  1.0  0.1024
  H  H52  1  0.840300  0.382000  0.369600  1.0  0.1087
  H  H53  1  0.901500  0.409000  0.280500  1.0  0.1067
  H  H54  1  0.954600  0.462900  0.269700  1.0  0.0941
  H  H55  1  0.564100  0.560000  0.094400  1.0  0.0878
  H  H56  1  0.704900  0.664800  0.953200  1.0  0.1006
  H  H57  1  0.588100  0.618200  0.155200  1.0  0.1131
  H  H58  1  0.633500  0.665000  0.239200  1.0  0.1026
  H  H59  1  0.659700  0.618000  0.869600  1.0  0.1091
  H  H60  1  0.598500  0.591000  0.780500  1.0  0.1067
  H  H61  1  0.545400  0.537100  0.769700  1.0  0.0935
  H  H62  1  0.064100  0.060000  0.594400  1.0  0.0878
  H  H63  1  0.204900  0.164800  0.453200  1.0  0.1006
  H  H64  1  0.088100  0.118200  0.655200  1.0  0.1131
  H  H65  1  0.133500  0.165000  0.739200  1.0  0.1026
  H  H66  1  0.159700  0.118000  0.369600  1.0  0.1091
  H  H67  1  0.098500  0.091000  0.280500  1.0  0.1067
  H  H68  1  0.045400  0.037100  0.269700  1.0  0.0935
  H  H69  1  0.435900  0.560000  0.094400  1.0  0.0879
  H  H70  1  0.295100  0.664800  0.953200  1.0  0.1002
  H  H71  1  0.411900  0.618200  0.155200  1.0  0.1131
  H  H72  1  0.366500  0.665000  0.239200  1.0  0.1024
  H  H73  1  0.340300  0.618000  0.869600  1.0  0.1087
  H  H74  1  0.401500  0.591000  0.780500  1.0  0.1067
  H  H75  1  0.454600  0.537100  0.769700  1.0  0.0948
  H  H76  1  0.935900  0.060000  0.594400  1.0  0.0879
  H  H77  1  0.795100  0.164800  0.453200  1.0  0.1002
  H  H78  1  0.911900  0.118200  0.655200  1.0  0.1131
  H  H79  1  0.866500  0.165000  0.739200  1.0  0.1024
  H  H80  1  0.840300  0.118000  0.369600  1.0  0.1087
  H  H81  1  0.901500  0.091000  0.280500  1.0  0.1067
  H  H82  1  0.954600  0.037100  0.269700  1.0  0.0948
  H  H83  1  0.564100  0.940000  0.094400  1.0  0.0876
  H  H84  1  0.704900  0.835200  0.953200  1.0  0.1003
  H  H85  1  0.588100  0.881800  0.155200  1.0  0.1131
  H  H86  1  0.633500  0.835000  0.239200  1.0  0.1027
  H  H87  1  0.659700  0.882000  0.869600  1.0  0.109
  H  H88  1  0.598500  0.909000  0.780500  1.0  0.1066
  H  H89  1  0.545400  0.962900  0.769700  1.0  0.0946
  H  H90  1  0.064100  0.440000  0.594400  1.0  0.0876
  H  H91  1  0.204900  0.335200  0.453200  1.0  0.1003
  H  H92  1  0.088100  0.381800  0.655200  1.0  0.1131
  H  H93  1  0.133500  0.335000  0.739200  1.0  0.1027
  H  H94  1  0.159700  0.382000  0.369600  1.0  0.109
  H  H95  1  0.098500  0.409000  0.280500  1.0  0.1066
  H  H96  1  0.045400  0.462900  0.269700  1.0  0.0946
  H  H97  1  0.564100  0.060000  0.905600  1.0  0.0874
  H  H98  1  0.704900  0.164800  0.046800  1.0  0.1001
  H  H99  1  0.588100  0.118200  0.844800  1.0  0.1126
  H  H100  1  0.633500  0.165000  0.760800  1.0  0.1027
  H  H101  1  0.659700  0.118000  0.130400  1.0  0.1087
  H  H102  1  0.598500  0.091000  0.219500  1.0  0.1071
  H  H103  1  0.545400  0.037100  0.230300  1.0  0.0938
  H  H104  1  0.064100  0.560000  0.405600  1.0  0.0874
  H  H105  1  0.204900  0.664800  0.546800  1.0  0.1001
  H  H106  1  0.088100  0.618200  0.344800  1.0  0.1126
  H  H107  1  0.133500  0.665000  0.260800  1.0  0.1027
  H  H108  1  0.159700  0.618000  0.630400  1.0  0.1087
  H  H109  1  0.098500  0.591000  0.719500  1.0  0.1071
  H  H110  1  0.045400  0.537100  0.730300  1.0  0.0938
  H  H111  1  0.435900  0.440000  0.905600  1.0  0.0874
  H  H112  1  0.295100  0.335200  0.046800  1.0  0.0998
  H  H113  1  0.411900  0.381800  0.844800  1.0  0.1136
  H  H114  1  0.366500  0.335000  0.760800  1.0  0.1032
  H  H115  1  0.340300  0.382000  0.130400  1.0  0.1088
  H  H116  1  0.401500  0.409000  0.219500  1.0  0.1074
  H  H117  1  0.454600  0.462900  0.230300  1.0  0.0941
  H  H118  1  0.935900  0.940000  0.405600  1.0  0.0874
  H  H119  1  0.795100  0.835200  0.546800  1.0  0.0998
  H  H120  1  0.911900  0.881800  0.344800  1.0  0.1136
  H  H121  1  0.866500  0.835000  0.260800  1.0  0.1032
  H  H122  1  0.840300  0.882000  0.630400  1.0  0.1088
  H  H123  1  0.901500  0.909000  0.719500  1.0  0.1074
  H  H124  1  0.954600  0.962900  0.730300  1.0  0.0941
  C  C125  1  0.566080  0.439200  0.986700  1.0  0.1092
  C  C126  1  0.674620  0.331710  0.895100  1.0  -0.1321
  C  C127  1  0.703430  0.302160  0.838700  1.0  0.6602
  C  C128  1  0.619940  0.386320  0.993800  1.0  0.1505
  C  C129  1  0.681470  0.345040  0.004800  1.0  -0.0264
  C  C130  1  0.612080  0.372510  0.885700  1.0  -0.1728
  C  C131  1  0.639170  0.344900  0.835600  1.0  -0.0602
  C  C132  1  0.654540  0.372600  0.054900  1.0  -0.1739
  C  C133  1  0.585270  0.421950  0.156500  1.0  -0.1059
  C  C134  1  0.556000  0.451320  0.161700  1.0  -0.0373
  C  C135  1  0.066080  0.939200  0.486700  1.0  0.1092
  C  C136  1  0.174620  0.831710  0.395100  1.0  -0.1321
  C  C137  1  0.203430  0.802160  0.338700  1.0  0.6602
  C  C138  1  0.119940  0.886320  0.493800  1.0  0.1505
  C  C139  1  0.181470  0.845040  0.504800  1.0  -0.0264
  C  C140  1  0.112080  0.872510  0.385700  1.0  -0.1728
  C  C141  1  0.139170  0.844900  0.335600  1.0  -0.0602
  C  C142  1  0.154540  0.872600  0.554900  1.0  -0.1739
  C  C143  1  0.085270  0.921950  0.656500  1.0  -0.1059
  C  C144  1  0.056000  0.951320  0.661700  1.0  -0.0373
  C  C145  1  0.433920  0.060800  0.986700  1.0  0.1082
  C  C146  1  0.325380  0.168290  0.895100  1.0  -0.1322
  C  C147  1  0.296570  0.197840  0.838700  1.0  0.6605
  C  C148  1  0.380060  0.113680  0.993800  1.0  0.1511
  C  C149  1  0.318530  0.154960  0.004800  1.0  -0.0274
  C  C150  1  0.387920  0.127490  0.885700  1.0  -0.1711
  C  C151  1  0.360830  0.155100  0.835600  1.0  -0.0601
  C  C152  1  0.345460  0.127400  0.054900  1.0  -0.1767
  C  C153  1  0.414730  0.078050  0.156500  1.0  -0.1077
  C  C154  1  0.444000  0.048680  0.161700  1.0  -0.0357
  C  C155  1  0.933920  0.560800  0.486700  1.0  0.1082
  C  C156  1  0.825380  0.668290  0.395100  1.0  -0.1322
  C  C157  1  0.796570  0.697840  0.338700  1.0  0.6605
  C  C158  1  0.880060  0.613680  0.493800  1.0  0.1511
  C  C159  1  0.818530  0.654960  0.504800  1.0  -0.0274
  C  C160  1  0.887920  0.627490  0.385700  1.0  -0.1711
  C  C161  1  0.860830  0.655100  0.335600  1.0  -0.0601
  C  C162  1  0.845460  0.627400  0.554900  1.0  -0.1767
  C  C163  1  0.914730  0.578050  0.656500  1.0  -0.1077
  C  C164  1  0.944000  0.548680  0.661700  1.0  -0.0357
  C  C165  1  0.433920  0.939200  0.013300  1.0  0.1084
  C  C166  1  0.325380  0.831710  0.104900  1.0  -0.1321
  C  C167  1  0.296570  0.802160  0.161300  1.0  0.6602
  C  C168  1  0.380060  0.886320  0.006200  1.0  0.1512
  C  C169  1  0.318530  0.845040  0.995200  1.0  -0.0261
  C  C170  1  0.387920  0.872510  0.114300  1.0  -0.1706
  C  C171  1  0.360830  0.844900  0.164400  1.0  -0.06
  C  C172  1  0.345460  0.872600  0.945100  1.0  -0.1746
  C  C173  1  0.414730  0.921950  0.843500  1.0  -0.1049
  C  C174  1  0.444000  0.951320  0.838300  1.0  -0.0366
  C  C175  1  0.933920  0.439200  0.513300  1.0  0.1084
  C  C176  1  0.825380  0.331710  0.604900  1.0  -0.1321
  C  C177  1  0.796570  0.302160  0.661300  1.0  0.6602
  C  C178  1  0.880060  0.386320  0.506200  1.0  0.1512
  C  C179  1  0.818530  0.345040  0.495200  1.0  -0.0261
  C  C180  1  0.887920  0.372510  0.614300  1.0  -0.1706
  C  C181  1  0.860830  0.344900  0.664400  1.0  -0.06
  C  C182  1  0.845460  0.372600  0.445100  1.0  -0.1746
  C  C183  1  0.914730  0.421950  0.343500  1.0  -0.1049
  C  C184  1  0.944000  0.451320  0.338300  1.0  -0.0366
  C  C185  1  0.566080  0.560800  0.013300  1.0  0.1087
  C  C186  1  0.674620  0.668290  0.104900  1.0  -0.132
  C  C187  1  0.703430  0.697840  0.161300  1.0  0.6606
  C  C188  1  0.619940  0.613680  0.006200  1.0  0.1512
  C  C189  1  0.681470  0.654960  0.995200  1.0  -0.0262
  C  C190  1  0.612080  0.627490  0.114300  1.0  -0.174
  C  C191  1  0.639170  0.655100  0.164400  1.0  -0.061
  C  C192  1  0.654540  0.627400  0.945100  1.0  -0.1742
  C  C193  1  0.585270  0.578050  0.843500  1.0  -0.106
  C  C194  1  0.556000  0.548680  0.838300  1.0  -0.0365
  C  C195  1  0.066080  0.060800  0.513300  1.0  0.1087
  C  C196  1  0.174620  0.168290  0.604900  1.0  -0.132
  C  C197  1  0.203430  0.197840  0.661300  1.0  0.6606
  C  C198  1  0.119940  0.113680  0.506200  1.0  0.1512
  C  C199  1  0.181470  0.154960  0.495200  1.0  -0.0262
  C  C200  1  0.112080  0.127490  0.614300  1.0  -0.174
  C  C201  1  0.139170  0.155100  0.664400  1.0  -0.061
  C  C202  1  0.154540  0.127400  0.445100  1.0  -0.1742
  C  C203  1  0.085270  0.078050  0.343500  1.0  -0.106
  C  C204  1  0.056000  0.048680  0.338300  1.0  -0.0365
  C  C205  1  0.433920  0.560800  0.013300  1.0  0.1079
  C  C206  1  0.325380  0.668290  0.104900  1.0  -0.1321
  C  C207  1  0.296570  0.697840  0.161300  1.0  0.6604
  C  C208  1  0.380060  0.613680  0.006200  1.0  0.1515
  C  C209  1  0.318530  0.654960  0.995200  1.0  -0.026
  C  C210  1  0.387920  0.627490  0.114300  1.0  -0.1706
  C  C211  1  0.360830  0.655100  0.164400  1.0  -0.0601
  C  C212  1  0.345460  0.627400  0.945100  1.0  -0.1744
  C  C213  1  0.414730  0.578050  0.843500  1.0  -0.1054
  C  C214  1  0.444000  0.548680  0.838300  1.0  -0.0366
  C  C215  1  0.933920  0.060800  0.513300  1.0  0.1079
  C  C216  1  0.825380  0.168290  0.604900  1.0  -0.1321
  C  C217  1  0.796570  0.197840  0.661300  1.0  0.6604
  C  C218  1  0.880060  0.113680  0.506200  1.0  0.1515
  C  C219  1  0.818530  0.154960  0.495200  1.0  -0.026
  C  C220  1  0.887920  0.127490  0.614300  1.0  -0.1706
  C  C221  1  0.860830  0.155100  0.664400  1.0  -0.0601
  C  C222  1  0.845460  0.127400  0.445100  1.0  -0.1744
  C  C223  1  0.914730  0.078050  0.343500  1.0  -0.1054
  C  C224  1  0.944000  0.048680  0.338300  1.0  -0.0366
  C  C225  1  0.566080  0.939200  0.013300  1.0  0.109
  C  C226  1  0.674620  0.831710  0.104900  1.0  -0.1319
  C  C227  1  0.703430  0.802160  0.161300  1.0  0.6603
  C  C228  1  0.619940  0.886320  0.006200  1.0  0.1508
  C  C229  1  0.681470  0.845040  0.995200  1.0  -0.0264
  C  C230  1  0.612080  0.872510  0.114300  1.0  -0.1739
  C  C231  1  0.639170  0.844900  0.164400  1.0  -0.061
  C  C232  1  0.654540  0.872600  0.945100  1.0  -0.1743
  C  C233  1  0.585270  0.921950  0.843500  1.0  -0.1059
  C  C234  1  0.556000  0.951320  0.838300  1.0  -0.0366
  C  C235  1  0.066080  0.439200  0.513300  1.0  0.109
  C  C236  1  0.174620  0.331710  0.604900  1.0  -0.1319
  C  C237  1  0.203430  0.302160  0.661300  1.0  0.6603
  C  C238  1  0.119940  0.386320  0.506200  1.0  0.1508
  C  C239  1  0.181470  0.345040  0.495200  1.0  -0.0264
  C  C240  1  0.112080  0.372510  0.614300  1.0  -0.1739
  C  C241  1  0.139170  0.344900  0.664400  1.0  -0.061
  C  C242  1  0.154540  0.372600  0.445100  1.0  -0.1743
  C  C243  1  0.085270  0.421950  0.343500  1.0  -0.1059
  C  C244  1  0.056000  0.451320  0.338300  1.0  -0.0366
  C  C245  1  0.566080  0.060800  0.986700  1.0  0.1091
  C  C246  1  0.674620  0.168290  0.895100  1.0  -0.132
  C  C247  1  0.703430  0.197840  0.838700  1.0  0.6607
  C  C248  1  0.619940  0.113680  0.993800  1.0  0.1508
  C  C249  1  0.681470  0.154960  0.004800  1.0  -0.0264
  C  C250  1  0.612080  0.127490  0.885700  1.0  -0.1732
  C  C251  1  0.639170  0.155100  0.835600  1.0  -0.0605
  C  C252  1  0.654540  0.127400  0.054900  1.0  -0.1738
  C  C253  1  0.585270  0.078050  0.156500  1.0  -0.1067
  C  C254  1  0.556000  0.048680  0.161700  1.0  -0.0364
  C  C255  1  0.066080  0.560800  0.486700  1.0  0.1091
  C  C256  1  0.174620  0.668290  0.395100  1.0  -0.132
  C  C257  1  0.203430  0.697840  0.338700  1.0  0.6607
  C  C258  1  0.119940  0.613680  0.493800  1.0  0.1508
  C  C259  1  0.181470  0.654960  0.504800  1.0  -0.0264
  C  C260  1  0.112080  0.627490  0.385700  1.0  -0.1732
  C  C261  1  0.139170  0.655100  0.335600  1.0  -0.0605
  C  C262  1  0.154540  0.627400  0.554900  1.0  -0.1738
  C  C263  1  0.085270  0.578050  0.656500  1.0  -0.1067
  C  C264  1  0.056000  0.548680  0.661700  1.0  -0.0364
  C  C265  1  0.433920  0.439200  0.986700  1.0  0.1084
  C  C266  1  0.325380  0.331710  0.895100  1.0  -0.1324
  C  C267  1  0.296570  0.302160  0.838700  1.0  0.6602
  C  C268  1  0.380060  0.386320  0.993800  1.0  0.1508
  C  C269  1  0.318530  0.345040  0.004800  1.0  -0.0273
  C  C270  1  0.387920  0.372510  0.885700  1.0  -0.1709
  C  C271  1  0.360830  0.344900  0.835600  1.0  -0.0596
  C  C272  1  0.345460  0.372600  0.054900  1.0  -0.1768
  C  C273  1  0.414730  0.421950  0.156500  1.0  -0.1063
  C  C274  1  0.444000  0.451320  0.161700  1.0  -0.0365
  C  C275  1  0.933920  0.939200  0.486700  1.0  0.1084
  C  C276  1  0.825380  0.831710  0.395100  1.0  -0.1324
  C  C277  1  0.796570  0.802160  0.338700  1.0  0.6602
  C  C278  1  0.880060  0.886320  0.493800  1.0  0.1508
  C  C279  1  0.818530  0.845040  0.504800  1.0  -0.0273
  C  C280  1  0.887920  0.872510  0.385700  1.0  -0.1709
  C  C281  1  0.860830  0.844900  0.335600  1.0  -0.0596
  C  C282  1  0.845460  0.872600  0.554900  1.0  -0.1768
  C  C283  1  0.914730  0.921950  0.656500  1.0  -0.1063
  C  C284  1  0.944000  0.951320  0.661700  1.0  -0.0365
  N  N285  1  0.544080  0.461810  0.054580  1.0  -0.3739
  N  N286  1  0.592090  0.414490  0.044200  1.0  0.0318
  N  N287  1  0.044080  0.961810  0.554580  1.0  -0.3739
  N  N288  1  0.092090  0.914490  0.544200  1.0  0.0318
  N  N289  1  0.455920  0.038190  0.054580  1.0  -0.3743
  N  N290  1  0.407910  0.085510  0.044200  1.0  0.0317
  N  N291  1  0.955920  0.538190  0.554580  1.0  -0.3743
  N  N292  1  0.907910  0.585510  0.544200  1.0  0.0317
  N  N293  1  0.455920  0.961810  0.945420  1.0  -0.3746
  N  N294  1  0.407910  0.914490  0.955800  1.0  0.0318
  N  N295  1  0.955920  0.461810  0.445420  1.0  -0.3746
  N  N296  1  0.907910  0.414490  0.455800  1.0  0.0318
  N  N297  1  0.544080  0.538190  0.945420  1.0  -0.3736
  N  N298  1  0.592090  0.585510  0.955800  1.0  0.0312
  N  N299  1  0.044080  0.038190  0.445420  1.0  -0.3736
  N  N300  1  0.092090  0.085510  0.455800  1.0  0.0312
  N  N301  1  0.455920  0.538190  0.945420  1.0  -0.3743
  N  N302  1  0.407910  0.585510  0.955800  1.0  0.0316
  N  N303  1  0.955920  0.038190  0.445420  1.0  -0.3743
  N  N304  1  0.907910  0.085510  0.455800  1.0  0.0316
  N  N305  1  0.544080  0.961810  0.945420  1.0  -0.3739
  N  N306  1  0.592090  0.914490  0.955800  1.0  0.0318
  N  N307  1  0.044080  0.461810  0.445420  1.0  -0.3739
  N  N308  1  0.092090  0.414490  0.455800  1.0  0.0318
  N  N309  1  0.544080  0.038190  0.054580  1.0  -0.3736
  N  N310  1  0.592090  0.085510  0.044200  1.0  0.0313
  N  N311  1  0.044080  0.538190  0.554580  1.0  -0.3736
  N  N312  1  0.092090  0.585510  0.544200  1.0  0.0313
  N  N313  1  0.455920  0.461810  0.054580  1.0  -0.3747
  N  N314  1  0.407910  0.414490  0.044200  1.0  0.0318
  N  N315  1  0.955920  0.961810  0.554580  1.0  -0.3747
  N  N316  1  0.907910  0.914490  0.544200  1.0  0.0318
  O  O317  1  0.734370  0.290620  0.898500  1.0  -0.5823
  O  O318  1  0.694710  0.290960  0.738900  1.0  -0.5762
  O  O319  1  0.234370  0.790620  0.398500  1.0  -0.5823
  O  O320  1  0.194710  0.790960  0.238900  1.0  -0.5762
  O  O321  1  0.265630  0.209380  0.898500  1.0  -0.582
  O  O322  1  0.305290  0.209040  0.738900  1.0  -0.5761
  O  O323  1  0.765630  0.709380  0.398500  1.0  -0.582
  O  O324  1  0.805290  0.709040  0.238900  1.0  -0.5761
  O  O325  1  0.265630  0.790620  0.101500  1.0  -0.5827
  O  O326  1  0.305290  0.790960  0.261100  1.0  -0.5755
  O  O327  1  0.765630  0.290620  0.601500  1.0  -0.5827
  O  O328  1  0.805290  0.290960  0.761100  1.0  -0.5755
  O  O329  1  0.734370  0.709380  0.101500  1.0  -0.583
  O  O330  1  0.694710  0.709040  0.261100  1.0  -0.5759
  O  O331  1  0.234370  0.209380  0.601500  1.0  -0.583
  O  O332  1  0.194710  0.209040  0.761100  1.0  -0.5759
  O  O333  1  0.265630  0.709380  0.101500  1.0  -0.5827
  O  O334  1  0.305290  0.709040  0.261100  1.0  -0.5753
  O  O335  1  0.765630  0.209380  0.601500  1.0  -0.5827
  O  O336  1  0.805290  0.209040  0.761100  1.0  -0.5753
  O  O337  1  0.734370  0.790620  0.101500  1.0  -0.583
  O  O338  1  0.694710  0.790960  0.261100  1.0  -0.5756
  O  O339  1  0.234370  0.290620  0.601500  1.0  -0.583
  O  O340  1  0.194710  0.290960  0.761100  1.0  -0.5756
  O  O341  1  0.734370  0.209380  0.898500  1.0  -0.5824
  O  O342  1  0.694710  0.209040  0.738900  1.0  -0.5763
  O  O343  1  0.234370  0.709380  0.398500  1.0  -0.5824
  O  O344  1  0.194710  0.709040  0.238900  1.0  -0.5763
  O  O345  1  0.265630  0.290620  0.898500  1.0  -0.582
  O  O346  1  0.305290  0.290960  0.738900  1.0  -0.5764
  O  O347  1  0.765630  0.790620  0.398500  1.0  -0.582
  O  O348  1  0.805290  0.790960  0.238900  1.0  -0.5764
