# generated using pymatgen
data_Ni2W(CN)8
_symmetry_space_group_name_H-M   'P 1'
_cell_length_a   11.67520000
_cell_length_b   11.67520000
_cell_length_c   12.89540000
_cell_angle_alpha   90.00000000
_cell_angle_beta   90.00000000
_cell_angle_gamma   90.00000000
_symmetry_Int_Tables_number   1
_chemical_formula_structural   Ni2W(CN)8
_chemical_formula_sum   'Ni8 W4 C32 N32'
_cell_volume   1757.77577866
_cell_formula_units_Z   4
loop_
 _symmetry_equiv_pos_site_id
 _symmetry_equiv_pos_as_xyz
  1  'x, y, z'
loop_
 _atom_site_type_symbol
 _atom_site_label
 _atom_site_symmetry_multiplicity
 _atom_site_fract_x
 _atom_site_fract_y
 _atom_site_fract_z
 _atom_site_occupancy
 _atom_site_charge
  Ni  Ni1  1  0.305890  0.201810  0.500000  1.0  0.6893
  Ni  Ni2  1  0.805890  0.701810  0.000000  1.0  0.6893
  Ni  Ni3  1  0.694110  0.798190  0.500000  1.0  0.6902
  Ni  Ni4  1  0.194110  0.298190  0.000000  1.0  0.6902
  Ni  Ni5  1  0.798190  0.305890  0.500000  1.0  0.6886
  Ni  Ni6  1  0.298190  0.805890  0.000000  1.0  0.6886
  Ni  Ni7  1  0.201810  0.694110  0.500000  1.0  0.6902
  Ni  Ni8  1  0.701810  0.194110  0.000000  1.0  0.6902
  W  W9  1  0.000000  0.000000  0.251010  1.0  0.0601
  W  W10  1  0.500000  0.500000  0.751010  1.0  0.0601
  W  W11  1  0.000000  0.000000  0.748990  1.0  0.0585
  W  W12  1  0.500000  0.500000  0.248990  1.0  0.0585
  C  C13  1  0.133200  0.081400  0.342000  1.0  0.2427
  C  C14  1  0.449000  0.353500  0.658900  1.0  0.1855
  C  C15  1  0.633200  0.581400  0.842000  1.0  0.2408
  C  C16  1  0.949000  0.853500  0.158900  1.0  0.1853
  C  C17  1  0.866800  0.918600  0.342000  1.0  0.2438
  C  C18  1  0.551000  0.646500  0.658900  1.0  0.1849
  C  C19  1  0.366800  0.418600  0.842000  1.0  0.2436
  C  C20  1  0.051000  0.146500  0.158900  1.0  0.1851
  C  C21  1  0.918600  0.133200  0.342000  1.0  0.2439
  C  C22  1  0.646500  0.449000  0.658900  1.0  0.1837
  C  C23  1  0.418600  0.633200  0.842000  1.0  0.244
  C  C24  1  0.146500  0.949000  0.158900  1.0  0.1837
  C  C25  1  0.081400  0.866800  0.342000  1.0  0.2448
  C  C26  1  0.353500  0.551000  0.658900  1.0  0.1834
  C  C27  1  0.581400  0.366800  0.842000  1.0  0.2448
  C  C28  1  0.853500  0.051000  0.158900  1.0  0.1837
  C  C29  1  0.866800  0.918600  0.658000  1.0  0.2471
  C  C30  1  0.551000  0.646500  0.341100  1.0  0.1845
  C  C31  1  0.366800  0.418600  0.158000  1.0  0.2416
  C  C32  1  0.051000  0.146500  0.841100  1.0  0.1842
  C  C33  1  0.133200  0.081400  0.658000  1.0  0.2432
  C  C34  1  0.449000  0.353500  0.341100  1.0  0.1852
  C  C35  1  0.633200  0.581400  0.158000  1.0  0.2431
  C  C36  1  0.949000  0.853500  0.841100  1.0  0.1849
  C  C37  1  0.081400  0.866800  0.658000  1.0  0.2452
  C  C38  1  0.353500  0.551000  0.341100  1.0  0.1835
  C  C39  1  0.581400  0.366800  0.158000  1.0  0.2453
  C  C40  1  0.853500  0.051000  0.841100  1.0  0.183
  C  C41  1  0.918600  0.133200  0.658000  1.0  0.2441
  C  C42  1  0.646500  0.449000  0.341100  1.0  0.1831
  C  C43  1  0.418600  0.633200  0.158000  1.0  0.2439
  C  C44  1  0.146500  0.949000  0.841100  1.0  0.1833
  N  N45  1  0.200860  0.131600  0.387890  1.0  -0.3869
  N  N46  1  0.411900  0.279000  0.610890  1.0  -0.4017
  N  N47  1  0.700860  0.631600  0.887890  1.0  -0.3869
  N  N48  1  0.911900  0.779000  0.110890  1.0  -0.4017
  N  N49  1  0.799140  0.868400  0.387890  1.0  -0.3847
  N  N50  1  0.588100  0.721000  0.610890  1.0  -0.4071
  N  N51  1  0.299140  0.368400  0.887890  1.0  -0.3847
  N  N52  1  0.088100  0.221000  0.110890  1.0  -0.4071
  N  N53  1  0.868400  0.200860  0.387890  1.0  -0.3837
  N  N54  1  0.721000  0.411900  0.610890  1.0  -0.3996
  N  N55  1  0.368400  0.700860  0.887890  1.0  -0.3837
  N  N56  1  0.221000  0.911900  0.110890  1.0  -0.3996
  N  N57  1  0.131600  0.799140  0.387890  1.0  -0.3856
  N  N58  1  0.279000  0.588100  0.610890  1.0  -0.4003
  N  N59  1  0.631600  0.299140  0.887890  1.0  -0.3856
  N  N60  1  0.779000  0.088100  0.110890  1.0  -0.4003
  N  N61  1  0.799140  0.868400  0.612110  1.0  -0.3852
  N  N62  1  0.588100  0.721000  0.389110  1.0  -0.4048
  N  N63  1  0.299140  0.368400  0.112110  1.0  -0.3852
  N  N64  1  0.088100  0.221000  0.889110  1.0  -0.4048
  N  N65  1  0.200860  0.131600  0.612110  1.0  -0.3858
  N  N66  1  0.411900  0.279000  0.389110  1.0  -0.4053
  N  N67  1  0.700860  0.631600  0.112110  1.0  -0.3858
  N  N68  1  0.911900  0.779000  0.889110  1.0  -0.4053
  N  N69  1  0.131600  0.799140  0.612110  1.0  -0.3827
  N  N70  1  0.279000  0.588100  0.389110  1.0  -0.4008
  N  N71  1  0.631600  0.299140  0.112110  1.0  -0.3827
  N  N72  1  0.779000  0.088100  0.889110  1.0  -0.4008
  N  N73  1  0.868400  0.200860  0.612110  1.0  -0.3864
  N  N74  1  0.721000  0.411900  0.389110  1.0  -0.4007
  N  N75  1  0.368400  0.700860  0.112110  1.0  -0.3864
  N  N76  1  0.221000  0.911900  0.889110  1.0  -0.4007
