# generated using pymatgen
data_NaEuAlMo6H7C8NO20
_symmetry_space_group_name_H-M   'P 1'
_cell_length_a   12.93200000
_cell_length_b   14.33800000
_cell_length_c   14.51000000
_cell_angle_alpha   104.74300000
_cell_angle_beta   108.98100000
_cell_angle_gamma   108.11900000
_symmetry_Int_Tables_number   1
_chemical_formula_structural   NaEuAlMo6H7C8NO20
_chemical_formula_sum   'Na2 Eu2 Al2 Mo12 H14 C16 N2 O40'
_cell_volume   2220.62168191
_cell_formula_units_Z   2
loop_
 _symmetry_equiv_pos_site_id
 _symmetry_equiv_pos_as_xyz
  1  'x, y, z'
loop_
 _atom_site_type_symbol
 _atom_site_label
 _atom_site_symmetry_multiplicity
 _atom_site_fract_x
 _atom_site_fract_y
 _atom_site_fract_z
 _atom_site_occupancy
 _atom_site_charge
  Na  Na1  1  0.546800  0.942600  0.906700  1.0  0.9901
  Na  Na2  1  0.453200  0.057400  0.093300  1.0  0.9914
  Eu  Eu3  1  0.498060  0.897290  0.569450  1.0  2.1909
  Eu  Eu4  1  0.501940  0.102710  0.430550  1.0  2.1894
  Al  Al5  1  0.000000  0.500000  0.500000  1.0  1.8863
  Al  Al6  1  0.500000  0.500000  0.000000  1.0  1.8948
  Mo  Mo7  1  0.142140  0.712420  0.468090  1.0  1.4038
  Mo  Mo8  1  0.104260  0.478700  0.319540  1.0  0.7273
  Mo  Mo9  1  0.958520  0.264340  0.350820  1.0  0.7441
  Mo  Mo10  1  0.387270  0.641020  0.889390  1.0  1.2246
  Mo  Mo11  1  0.359480  0.408580  0.740640  1.0  0.757
  Mo  Mo12  1  0.468540  0.268250  0.851390  1.0  0.7869
  Mo  Mo13  1  0.857860  0.287580  0.531910  1.0  1.4033
  Mo  Mo14  1  0.895740  0.521300  0.680460  1.0  0.7244
  Mo  Mo15  1  0.041480  0.735660  0.649180  1.0  0.7427
  Mo  Mo16  1  0.612730  0.358980  0.110610  1.0  1.2242
  Mo  Mo17  1  0.640520  0.591420  0.259360  1.0  0.7577
  Mo  Mo18  1  0.531460  0.731750  0.148610  1.0  0.787
  H  H19  1  0.983200  0.879500  0.327300  1.0  0.1802
  H  H20  1  0.891400  0.980600  0.258400  1.0  0.1834
  H  H21  1  0.758300  0.023700  0.315900  1.0  0.187
  H  H22  1  0.802000  0.861200  0.504500  1.0  0.1766
  H  H23  1  0.236900  0.740800  0.173700  1.0  0.2223
  H  H24  1  0.174600  0.755000  0.252100  1.0  0.2127
  H  H25  1  0.280900  0.717100  0.278200  1.0  0.229
  H  H26  1  0.016800  0.120500  0.672700  1.0  0.181
  H  H27  1  0.108600  0.019400  0.741600  1.0  0.1832
  H  H28  1  0.241700  0.976300  0.684100  1.0  0.187
  H  H29  1  0.198000  0.138800  0.495500  1.0  0.1764
  H  H30  1  0.763100  0.259200  0.826300  1.0  0.2227
  H  H31  1  0.825400  0.245000  0.747900  1.0  0.2126
  H  H32  1  0.719100  0.282900  0.721800  1.0  0.2281
  C  C33  1  0.928600  0.897900  0.350200  1.0  0.1995
  C  C34  1  0.873900  0.957400  0.309600  1.0  -0.0331
  C  C35  1  0.795400  0.982500  0.342800  1.0  -0.0123
  C  C36  1  0.770500  0.946400  0.417100  1.0  -0.0545
  C  C37  1  0.821700  0.887600  0.455700  1.0  0.2537
  C  C38  1  0.675900  0.968100  0.449600  1.0  0.779
  C  C39  1  0.250800  0.762500  0.248100  1.0  -0.3831
  C  C40  1  0.342800  0.877000  0.309600  1.0  0.8202
  C  C41  1  0.071400  0.102100  0.649800  1.0  0.1979
  C  C42  1  0.126100  0.042600  0.690400  1.0  -0.0355
  C  C43  1  0.204600  0.017500  0.657200  1.0  -0.0137
  C  C44  1  0.229500  0.053600  0.582900  1.0  -0.0558
  C  C45  1  0.178300  0.112400  0.544300  1.0  0.2554
  C  C46  1  0.324100  0.031900  0.550400  1.0  0.7781
  C  C47  1  0.749200  0.237500  0.751900  1.0  -0.382
  C  C48  1  0.657200  0.123000  0.690400  1.0  0.8188
  N  N49  1  0.901700  0.867300  0.423100  1.0  -0.3589
  N  N50  1  0.098300  0.132700  0.576900  1.0  -0.3598
  O  O51  1  0.653100  0.929100  0.511900  1.0  -0.6568
  O  O52  1  0.630700  0.021200  0.410100  1.0  -0.5837
  O  O53  1  0.408600  0.908800  0.406300  1.0  -0.6843
  O  O54  1  0.351700  0.943600  0.267200  1.0  -0.577
  O  O55  1  0.291200  0.760300  0.486600  1.0  -0.7087
  O  O56  1  0.148600  0.562900  0.494600  1.0  -0.7777
  O  O57  1  0.065100  0.598000  0.330800  1.0  -0.6441
  O  O58  1  0.976700  0.617800  0.479100  1.0  -0.7413
  O  O59  1  0.178900  0.763800  0.617500  1.0  -0.6157
  O  O60  1  0.942300  0.416600  0.353200  1.0  -0.7441
  O  O61  1  0.107500  0.362400  0.357900  1.0  -0.6189
  O  O62  1  0.437200  0.849000  0.706400  1.0  -0.5584
  O  O63  1  0.551900  0.641200  0.007000  1.0  -0.7664
  O  O64  1  0.349700  0.477200  0.896000  1.0  -0.7523
  O  O65  1  0.429600  0.562800  0.789100  1.0  -0.629
  O  O66  1  0.380100  0.678100  0.023600  1.0  -0.6258
  O  O67  1  0.459400  0.765400  0.895200  1.0  -0.704
  O  O68  1  0.530100  0.444700  0.884200  1.0  -0.7539
  O  O69  1  0.330100  0.286200  0.773100  1.0  -0.6464
  O  O70  1  0.373400  0.972400  0.904000  1.0  -0.5218
  O  O71  1  0.346900  0.070900  0.488100  1.0  -0.656
  O  O72  1  0.369300  0.978800  0.589900  1.0  -0.5828
  O  O73  1  0.591400  0.091200  0.593700  1.0  -0.6837
  O  O74  1  0.648300  0.056400  0.732800  1.0  -0.5796
  O  O75  1  0.708800  0.239700  0.513400  1.0  -0.7107
  O  O76  1  0.851400  0.437100  0.505400  1.0  -0.779
  O  O77  1  0.934900  0.402000  0.669200  1.0  -0.6392
  O  O78  1  0.023300  0.382200  0.520900  1.0  -0.7402
  O  O79  1  0.821100  0.236200  0.382500  1.0  -0.6163
  O  O80  1  0.057700  0.583400  0.646800  1.0  -0.7445
  O  O81  1  0.892500  0.637600  0.642100  1.0  -0.6156
  O  O82  1  0.562800  0.151000  0.293600  1.0  -0.5608
  O  O83  1  0.448100  0.358800  0.993000  1.0  -0.7668
  O  O84  1  0.650300  0.522800  0.104000  1.0  -0.7529
  O  O85  1  0.570400  0.437200  0.210900  1.0  -0.63
  O  O86  1  0.619900  0.321900  0.976400  1.0  -0.627
  O  O87  1  0.540600  0.234600  0.104800  1.0  -0.7043
  O  O88  1  0.469900  0.555300  0.115800  1.0  -0.7556
  O  O89  1  0.669900  0.713800  0.226900  1.0  -0.6459
  O  O90  1  0.626600  0.027600  0.096000  1.0  -0.5208
