# generated using pymatgen
data_Co5H32C34(N2O9)2
_symmetry_space_group_name_H-M   'P 1'
_cell_length_a   6.50170000
_cell_length_b   10.15500000
_cell_length_c   16.35820000
_cell_angle_alpha   87.04100000
_cell_angle_beta   87.17700000
_cell_angle_gamma   81.42700000
_symmetry_Int_Tables_number   1
_chemical_formula_structural   Co5H32C34(N2O9)2
_chemical_formula_sum   'Co5 H32 C34 N4 O18'
_cell_volume   1065.60998104
_cell_formula_units_Z   1
loop_
 _symmetry_equiv_pos_site_id
 _symmetry_equiv_pos_as_xyz
  1  'x, y, z'
loop_
 _atom_site_type_symbol
 _atom_site_label
 _atom_site_symmetry_multiplicity
 _atom_site_fract_x
 _atom_site_fract_y
 _atom_site_fract_z
 _atom_site_occupancy
 _atom_site_charge
  Co  Co1  1  0.865780  0.502110  0.269050  1.0  0.9418
  Co  Co2  1  0.029270  0.845520  0.996640  1.0  0.9865
  Co  Co3  1  0.134220  0.497890  0.730950  1.0  0.945
  Co  Co4  1  0.970730  0.154480  0.003360  1.0  0.9887
  Co  Co5  1  0.500000  0.000000  0.000000  1.0  1.0379
  H  H6  1  0.295100  0.006000  0.904900  1.0  0.1829
  H  H7  1  0.678700  0.725700  0.398300  1.0  0.1
  H  H8  1  0.836600  0.345400  0.452900  1.0  0.1162
  H  H9  1  0.745700  0.456500  0.582000  1.0  0.1482
  H  H10  1  0.740000  0.734200  0.605400  1.0  0.114
  H  H11  1  0.509800  0.706200  0.604100  1.0  0.117
  H  H12  1  0.845400  0.905300  0.491100  1.0  0.1096
  H  H13  1  0.253300  0.881500  0.561900  1.0  0.1105
  H  H14  1  0.180300  0.821400  0.337200  1.0  0.1018
  H  H15  1  0.933400  0.963500  0.214800  1.0  0.0995
  H  H16  1  0.865100  0.950700  0.307900  1.0  0.088
  H  H17  1  0.119700  0.069600  0.343600  1.0  0.0997
  H  H18  1  0.349700  0.159300  0.258300  1.0  0.1003
  H  H19  1  0.559600  0.962700  0.212400  1.0  0.0954
  H  H20  1  0.478100  0.948600  0.303700  1.0  0.0857
  H  H21  1  0.442100  0.755300  0.243700  1.0  0.118
  H  H22  1  0.704900  0.994000  0.095100  1.0  0.1843
  H  H23  1  0.321300  0.274300  0.601700  1.0  0.1003
  H  H24  1  0.163400  0.654600  0.547100  1.0  0.1154
  H  H25  1  0.254300  0.543500  0.418000  1.0  0.1484
  H  H26  1  0.260000  0.265800  0.394600  1.0  0.1148
  H  H27  1  0.490200  0.293800  0.395900  1.0  0.1164
  H  H28  1  0.154600  0.094700  0.508900  1.0  0.1094
  H  H29  1  0.746700  0.118500  0.438100  1.0  0.1103
  H  H30  1  0.819700  0.178600  0.662800  1.0  0.103
  H  H31  1  0.066600  0.036500  0.785200  1.0  0.0979
  H  H32  1  0.134900  0.049300  0.692100  1.0  0.086
  H  H33  1  0.880300  0.930400  0.656400  1.0  0.099
  H  H34  1  0.650300  0.840700  0.741700  1.0  0.1006
  H  H35  1  0.440400  0.037300  0.787600  1.0  0.0927
  H  H36  1  0.521900  0.051400  0.696300  1.0  0.0852
  H  H37  1  0.557900  0.244700  0.756300  1.0  0.1182
  C  C38  1  0.708100  0.644500  0.427430  1.0  0.1546
  C  C39  1  0.794300  0.436400  0.457920  1.0  0.0176
  C  C40  1  0.743600  0.496900  0.529620  1.0  -0.1552
  C  C41  1  0.625200  0.731600  0.570080  1.0  -0.0753
  C  C42  1  0.560800  0.869400  0.532310  1.0  0.1149
  C  C43  1  0.706000  0.942900  0.494830  1.0  -0.1051
  C  C44  1  0.353300  0.928700  0.537020  1.0  -0.107
  C  C45  1  0.140700  0.827500  0.279970  1.0  -0.1426
  C  C46  1  0.983500  0.955800  0.269990  1.0  -0.1274
  C  C47  1  0.081500  0.079500  0.286180  1.0  -0.1318
  C  C48  1  0.285000  0.088500  0.235900  1.0  -0.1584
  C  C49  1  0.435900  0.957800  0.247430  1.0  -0.1663
  C  C50  1  0.342500  0.833500  0.227600  1.0  -0.14
  C  C51  1  0.042900  0.703400  0.266980  1.0  0.6462
  C  C52  1  0.312400  0.828000  0.135720  1.0  0.6754
  C  C53  1  0.925500  0.208300  0.279270  1.0  0.6639
  C  C54  1  0.253500  0.125300  0.144950  1.0  0.6948
  C  C55  1  0.291900  0.355500  0.572570  1.0  0.1566
  C  C56  1  0.205700  0.563600  0.542080  1.0  0.0193
  C  C57  1  0.256400  0.503100  0.470380  1.0  -0.1553
  C  C58  1  0.374800  0.268400  0.429920  1.0  -0.074
  C  C59  1  0.439200  0.130600  0.467690  1.0  0.1153
  C  C60  1  0.294000  0.057100  0.505170  1.0  -0.1024
  C  C61  1  0.646700  0.071300  0.462980  1.0  -0.108
  C  C62  1  0.859300  0.172500  0.720030  1.0  -0.1439
  C  C63  1  0.016500  0.044200  0.730010  1.0  -0.1262
  C  C64  1  0.918500  0.920500  0.713820  1.0  -0.1315
  C  C65  1  0.715000  0.911500  0.764100  1.0  -0.1581
  C  C66  1  0.564100  0.042200  0.752570  1.0  -0.168
  C  C67  1  0.657500  0.166500  0.772400  1.0  -0.1408
  C  C68  1  0.957100  0.296600  0.733020  1.0  0.6455
  C  C69  1  0.687600  0.172000  0.864280  1.0  0.6741
  C  C70  1  0.074500  0.791700  0.720730  1.0  0.6636
  C  C71  1  0.746500  0.874700  0.855050  1.0  0.6979
  N  N72  1  0.773800  0.529900  0.393500  1.0  -0.4061
  N  N73  1  0.688900  0.629200  0.509480  1.0  0.0564
  N  N74  1  0.226200  0.470100  0.606500  1.0  -0.4077
  N  N75  1  0.311100  0.370800  0.490520  1.0  0.0567
  O  O76  1  0.202200  0.003510  0.964820  1.0  -0.7916
  O  O77  1  0.157200  0.589690  0.273940  1.0  -0.6116
  O  O78  1  0.852200  0.711010  0.255930  1.0  -0.5644
  O  O79  1  0.738300  0.206210  0.270310  1.0  -0.5685
  O  O80  1  0.005800  0.314120  0.287650  1.0  -0.5884
  O  O81  1  0.413700  0.135030  0.098570  1.0  -0.6154
  O  O82  1  0.072800  0.141910  0.120890  1.0  -0.5929
  O  O83  1  0.470100  0.841450  0.087910  1.0  -0.6215
  O  O84  1  0.139700  0.811510  0.112390  1.0  -0.5894
  O  O85  1  0.797800  0.996490  0.035180  1.0  -0.7912
  O  O86  1  0.842800  0.410310  0.726060  1.0  -0.6115
  O  O87  1  0.147800  0.288990  0.744070  1.0  -0.5636
  O  O88  1  0.261700  0.793790  0.729690  1.0  -0.5661
  O  O89  1  0.994200  0.685880  0.712350  1.0  -0.5894
  O  O90  1  0.586300  0.864970  0.901430  1.0  -0.6175
  O  O91  1  0.927200  0.858090  0.879110  1.0  -0.5994
  O  O92  1  0.529900  0.158550  0.912090  1.0  -0.6204
  O  O93  1  0.860300  0.188490  0.887610  1.0  -0.5876
