# generated using pymatgen
data_CdH11C21O10
_symmetry_space_group_name_H-M   'P 1'
_cell_length_a   10.03100000
_cell_length_b   14.54100000
_cell_length_c   23.56200000
_cell_angle_alpha   90.00000000
_cell_angle_beta   96.38100000
_cell_angle_gamma   90.00000000
_symmetry_Int_Tables_number   1
_chemical_formula_structural   CdH11C21O10
_chemical_formula_sum   'Cd4 H44 C84 O40'
_cell_volume   3415.48009931
_cell_formula_units_Z   4
loop_
 _symmetry_equiv_pos_site_id
 _symmetry_equiv_pos_as_xyz
  1  'x, y, z'
loop_
 _atom_site_type_symbol
 _atom_site_label
 _atom_site_symmetry_multiplicity
 _atom_site_fract_x
 _atom_site_fract_y
 _atom_site_fract_z
 _atom_site_occupancy
 _atom_site_charge
  Cd  Cd1  1  0.438080  0.536090  0.319450  1.0  1.1031
  Cd  Cd2  1  0.561920  0.036090  0.180550  1.0  1.1024
  Cd  Cd3  1  0.561920  0.463910  0.680550  1.0  1.1024
  Cd  Cd4  1  0.438080  0.963910  0.819450  1.0  1.1031
  H  H5  1  0.940700  0.521100  0.323600  1.0  0.1388
  H  H6  1  0.760700  0.308700  0.391000  1.0  0.1445
  H  H7  1  0.160300  0.316400  0.401700  1.0  0.146
  H  H8  1  0.131500  0.206800  0.473100  1.0  0.1132
  H  H9  1  0.119700  0.160600  0.412600  1.0  0.1112
  H  H10  1  0.855700  0.120700  0.485000  1.0  0.1198
  H  H11  1  0.320100  0.955100  0.481200  1.0  0.1071
  H  H12  1  0.264900  0.004200  0.424200  1.0  0.1544
  H  H13  1  0.441500  0.228400  0.527900  1.0  0.1416
  H  H14  1  0.490100  0.148400  0.691900  1.0  0.1317
  H  H15  1  0.333400  0.975200  0.571700  1.0  0.1191
  H  H16  1  0.059300  0.021100  0.176400  1.0  0.139
  H  H17  1  0.239300  0.808700  0.109000  1.0  0.1444
  H  H18  1  0.839700  0.816400  0.098300  1.0  0.1466
  H  H19  1  0.868500  0.706800  0.026900  1.0  0.1133
  H  H20  1  0.880300  0.660600  0.087400  1.0  0.1122
  H  H21  1  0.144300  0.620700  0.015000  1.0  0.1201
  H  H22  1  0.679900  0.455100  0.018800  1.0  0.1079
  H  H23  1  0.735100  0.504200  0.075800  1.0  0.1521
  H  H24  1  0.558500  0.728400  0.972100  1.0  0.1429
  H  H25  1  0.509900  0.648400  0.808100  1.0  0.1318
  H  H26  1  0.666667  0.475200  0.928300  1.0  0.1202
  H  H27  1  0.059300  0.478900  0.676400  1.0  0.1392
  H  H28  1  0.239300  0.691300  0.609000  1.0  0.1443
  H  H29  1  0.839700  0.683600  0.598300  1.0  0.1465
  H  H30  1  0.868500  0.793200  0.526900  1.0  0.1131
  H  H31  1  0.880300  0.839400  0.587400  1.0  0.1122
  H  H32  1  0.144300  0.879300  0.515000  1.0  0.1204
  H  H33  1  0.679900  0.044900  0.518800  1.0  0.107
  H  H34  1  0.735100  0.995800  0.575800  1.0  0.1521
  H  H35  1  0.558500  0.771600  0.472100  1.0  0.1436
  H  H36  1  0.509900  0.851600  0.308100  1.0  0.1317
  H  H37  1  0.666667  0.024800  0.428300  1.0  0.1198
  H  H38  1  0.940700  0.978900  0.823600  1.0  0.1391
  H  H39  1  0.760700  0.191300  0.891000  1.0  0.1443
  H  H40  1  0.160300  0.183600  0.901700  1.0  0.1459
  H  H41  1  0.131500  0.293200  0.973100  1.0  0.1134
  H  H42  1  0.119700  0.339400  0.912600  1.0  0.1114
  H  H43  1  0.855700  0.379300  0.985000  1.0  0.1196
  H  H44  1  0.320100  0.544900  0.981200  1.0  0.106
  H  H45  1  0.264900  0.495800  0.924200  1.0  0.1543
  H  H46  1  0.441500  0.271600  0.027900  1.0  0.1422
  H  H47  1  0.490100  0.351600  0.191900  1.0  0.1316
  H  H48  1  0.333400  0.524800  0.071700  1.0  0.1182
  C  C49  1  0.195300  0.469500  0.345100  1.0  0.7032
  C  C50  1  0.070100  0.425400  0.359700  1.0  -0.1403
  C  C51  1  0.945900  0.465700  0.343400  1.0  0.0459
  C  C52  1  0.830800  0.423000  0.356600  1.0  -0.1395
  C  C53  1  0.838800  0.339700  0.384600  1.0  -0.0689
  C  C54  1  0.960800  0.302700  0.403000  1.0  0.2698
  C  C55  1  0.077700  0.343400  0.390200  1.0  -0.1546
  C  C56  1  0.694400  0.467600  0.340400  1.0  0.7459
  C  C57  1  0.073000  0.171200  0.445900  1.0  0.0318
  C  C58  1  0.041600  0.078300  0.472700  1.0  0.0501
  C  C59  1  0.913900  0.071000  0.490900  1.0  -0.0686
  C  C60  1  0.128900  0.004700  0.483300  1.0  0.0938
  C  C61  1  0.270500  0.008300  0.465500  1.0  -0.0211
  C  C62  1  0.382300  0.096200  0.540100  1.0  0.2605
  C  C63  1  0.433100  0.184100  0.555700  1.0  -0.0941
  C  C64  1  0.470600  0.204200  0.613300  1.0  -0.1314
  C  C65  1  0.460500  0.136300  0.653800  1.0  -0.0333
  C  C66  1  0.407200  0.050600  0.638600  1.0  -0.1379
  C  C67  1  0.369200  0.032500  0.582000  1.0  -0.1089
  C  C68  1  0.516800  0.298200  0.632800  1.0  0.696
  C  C69  1  0.395000  0.984000  0.684500  1.0  0.5987
  C  C70  1  0.804700  0.969500  0.154900  1.0  0.7027
  C  C71  1  0.929900  0.925400  0.140300  1.0  -0.1397
  C  C72  1  0.054100  0.965700  0.156600  1.0  0.0459
  C  C73  1  0.169200  0.923000  0.143400  1.0  -0.1402
  C  C74  1  0.161200  0.839700  0.115400  1.0  -0.0694
  C  C75  1  0.039200  0.802700  0.097000  1.0  0.2698
  C  C76  1  0.922300  0.843400  0.109800  1.0  -0.1562
  C  C77  1  0.305600  0.967600  0.159600  1.0  0.7442
  C  C78  1  0.927000  0.671200  0.054100  1.0  0.0316
  C  C79  1  0.958400  0.578300  0.027300  1.0  0.0513
  C  C80  1  0.086100  0.571000  0.009100  1.0  -0.0681
  C  C81  1  0.871100  0.504700  0.016700  1.0  0.0957
  C  C82  1  0.729500  0.508300  0.034500  1.0  -0.0227
  C  C83  1  0.617700  0.596200  0.959900  1.0  0.2608
  C  C84  1  0.566900  0.684100  0.944300  1.0  -0.0947
  C  C85  1  0.529400  0.704200  0.886700  1.0  -0.1301
  C  C86  1  0.539500  0.636300  0.846200  1.0  -0.0357
  C  C87  1  0.592800  0.550600  0.861400  1.0  -0.1393
  C  C88  1  0.630800  0.532500  0.918000  1.0  -0.1102
  C  C89  1  0.483200  0.798200  0.867200  1.0  0.6959
  C  C90  1  0.605000  0.484000  0.815500  1.0  0.5994
  C  C91  1  0.804700  0.530500  0.654900  1.0  0.7028
  C  C92  1  0.929900  0.574600  0.640300  1.0  -0.141
  C  C93  1  0.054100  0.534300  0.656600  1.0  0.0458
  C  C94  1  0.169200  0.577000  0.643400  1.0  -0.1405
  C  C95  1  0.161200  0.660300  0.615400  1.0  -0.0694
  C  C96  1  0.039200  0.697300  0.597000  1.0  0.2698
  C  C97  1  0.922300  0.656600  0.609800  1.0  -0.156
  C  C98  1  0.305600  0.532400  0.659600  1.0  0.7442
  C  C99  1  0.927000  0.828800  0.554100  1.0  0.0315
  C  C100  1  0.958400  0.921700  0.527300  1.0  0.0509
  C  C101  1  0.086100  0.929000  0.509100  1.0  -0.0675
  C  C102  1  0.871100  0.995300  0.516700  1.0  0.0956
  C  C103  1  0.729500  0.991700  0.534500  1.0  -0.0228
  C  C104  1  0.617700  0.903800  0.459900  1.0  0.2613
  C  C105  1  0.566900  0.815900  0.444300  1.0  -0.0939
  C  C106  1  0.529400  0.795800  0.386700  1.0  -0.1306
  C  C107  1  0.539500  0.863700  0.346200  1.0  -0.0341
  C  C108  1  0.592800  0.949400  0.361400  1.0  -0.138
  C  C109  1  0.630800  0.967500  0.418000  1.0  -0.1114
  C  C110  1  0.483200  0.701800  0.367200  1.0  0.6959
  C  C111  1  0.605000  0.016000  0.315500  1.0  0.5993
  C  C112  1  0.195300  0.030500  0.845100  1.0  0.7034
  C  C113  1  0.070100  0.074600  0.859700  1.0  -0.1411
  C  C114  1  0.945900  0.034300  0.843400  1.0  0.0461
  C  C115  1  0.830800  0.077000  0.856600  1.0  -0.1403
  C  C116  1  0.838800  0.160300  0.884600  1.0  -0.0689
  C  C117  1  0.960800  0.197300  0.903000  1.0  0.2698
  C  C118  1  0.077700  0.156600  0.890200  1.0  -0.1551
  C  C119  1  0.694400  0.032400  0.840400  1.0  0.7458
  C  C120  1  0.073000  0.328800  0.945900  1.0  0.0316
  C  C121  1  0.041600  0.421700  0.972700  1.0  0.0497
  C  C122  1  0.913900  0.429000  0.990900  1.0  -0.0674
  C  C123  1  0.128900  0.495300  0.983300  1.0  0.094
  C  C124  1  0.270500  0.491700  0.965500  1.0  -0.0221
  C  C125  1  0.382300  0.403800  0.040100  1.0  0.2612
  C  C126  1  0.433100  0.315900  0.055700  1.0  -0.094
  C  C127  1  0.470600  0.295800  0.113300  1.0  -0.1314
  C  C128  1  0.460500  0.363700  0.153800  1.0  -0.033
  C  C129  1  0.407200  0.449400  0.138600  1.0  -0.139
  C  C130  1  0.369200  0.467500  0.082000  1.0  -0.1094
  C  C131  1  0.516800  0.201800  0.132800  1.0  0.6958
  C  C132  1  0.395000  0.516000  0.184500  1.0  0.5968
  O  O133  1  0.190100  0.542700  0.318100  1.0  -0.5399
  O  O134  1  0.304800  0.433900  0.363100  1.0  -0.5766
  O  O135  1  0.690800  0.540500  0.315900  1.0  -0.5567
  O  O136  1  0.594600  0.428100  0.352500  1.0  -0.5447
  O  O137  1  0.961100  0.218600  0.430700  1.0  -0.2718
  O  O138  1  0.343500  0.089700  0.483700  1.0  -0.2411
  O  O139  1  0.521900  0.359700  0.598500  1.0  -0.5468
  O  O140  1  0.548000  0.311900  0.683800  1.0  -0.5517
  O  O141  1  0.424200  0.003400  0.731200  1.0  -0.6086
  O  O142  1  0.351800  0.905900  0.670700  1.0  -0.4852
  O  O143  1  0.809900  0.042700  0.181900  1.0  -0.5396
  O  O144  1  0.695200  0.933900  0.136900  1.0  -0.5783
  O  O145  1  0.309200  0.040500  0.184100  1.0  -0.5568
  O  O146  1  0.405400  0.928100  0.147500  1.0  -0.5456
  O  O147  1  0.038900  0.718600  0.069300  1.0  -0.2746
  O  O148  1  0.656500  0.589700  0.016300  1.0  -0.2433
  O  O149  1  0.478100  0.859700  0.901500  1.0  -0.545
  O  O150  1  0.452000  0.811900  0.816200  1.0  -0.5506
  O  O151  1  0.575800  0.503400  0.768800  1.0  -0.607
  O  O152  1  0.648200  0.405900  0.829300  1.0  -0.4835
  O  O153  1  0.809900  0.457300  0.681900  1.0  -0.5406
  O  O154  1  0.695200  0.566100  0.636900  1.0  -0.5781
  O  O155  1  0.309200  0.459500  0.684100  1.0  -0.5577
  O  O156  1  0.405400  0.571900  0.647500  1.0  -0.544
  O  O157  1  0.038900  0.781400  0.569300  1.0  -0.2748
  O  O158  1  0.656500  0.910300  0.516300  1.0  -0.242
  O  O159  1  0.478100  0.640300  0.401500  1.0  -0.5452
  O  O160  1  0.452000  0.688100  0.316200  1.0  -0.551
  O  O161  1  0.575800  0.996600  0.268800  1.0  -0.6074
  O  O162  1  0.648200  0.094100  0.329300  1.0  -0.4836
  O  O163  1  0.190100  0.957300  0.818100  1.0  -0.5412
  O  O164  1  0.304800  0.066100  0.863100  1.0  -0.5771
  O  O165  1  0.690800  0.959500  0.815900  1.0  -0.5592
  O  O166  1  0.594600  0.071900  0.852500  1.0  -0.5436
  O  O167  1  0.961100  0.281400  0.930700  1.0  -0.2723
  O  O168  1  0.343500  0.410300  0.983700  1.0  -0.2399
  O  O169  1  0.521900  0.140300  0.098500  1.0  -0.5465
  O  O170  1  0.548000  0.188100  0.183800  1.0  -0.5522
  O  O171  1  0.424200  0.496600  0.231200  1.0  -0.6089
  O  O172  1  0.351800  0.594100  0.170700  1.0  -0.4842
