# generated using pymatgen
data_K2Cd5H28(C2O)32
_symmetry_space_group_name_H-M   'P 1'
_cell_length_a   26.61520000
_cell_length_b   11.74490000
_cell_length_c   29.59230000
_cell_angle_alpha   90.00000000
_cell_angle_beta   90.00000000
_cell_angle_gamma   90.00000000
_symmetry_Int_Tables_number   1
_chemical_formula_structural   K2Cd5H28(C2O)32
_chemical_formula_sum   'K8 Cd20 H112 C256 O128'
_cell_volume   9250.34176437
_cell_formula_units_Z   4
loop_
 _symmetry_equiv_pos_site_id
 _symmetry_equiv_pos_as_xyz
  1  'x, y, z'
loop_
 _atom_site_type_symbol
 _atom_site_label
 _atom_site_symmetry_multiplicity
 _atom_site_fract_x
 _atom_site_fract_y
 _atom_site_fract_z
 _atom_site_occupancy
 _atom_site_charge
  K  K1  1  0.500000  0.109800  0.750000  1.0  0.979
  K  K2  1  0.500000  0.406060  0.750000  1.0  0.9695
  K  K3  1  0.000000  0.390200  0.250000  1.0  0.9794
  K  K4  1  0.000000  0.093940  0.250000  1.0  0.9697
  K  K5  1  0.500000  0.890200  0.250000  1.0  0.9794
  K  K6  1  0.500000  0.593940  0.250000  1.0  0.9697
  K  K7  1  0.000000  0.609800  0.750000  1.0  0.9792
  K  K8  1  0.000000  0.906060  0.750000  1.0  0.9699
  Cd  Cd9  1  0.720960  0.779630  0.481380  1.0  0.8533
  Cd  Cd10  1  0.494250  0.260710  0.622390  1.0  0.8785
  Cd  Cd11  1  0.779040  0.720370  0.981380  1.0  0.8538
  Cd  Cd12  1  0.005750  0.239290  0.122390  1.0  0.8778
  Cd  Cd13  1  0.279040  0.779630  0.018620  1.0  0.854
  Cd  Cd14  1  0.505750  0.260710  0.877610  1.0  0.8759
  Cd  Cd15  1  0.220960  0.720370  0.518620  1.0  0.8528
  Cd  Cd16  1  0.994250  0.239290  0.377610  1.0  0.8768
  Cd  Cd17  1  0.500000  0.760260  0.750000  1.0  1.0469
  Cd  Cd18  1  0.000000  0.739740  0.250000  1.0  1.047
  Cd  Cd19  1  0.279040  0.220370  0.518620  1.0  0.8536
  Cd  Cd20  1  0.505750  0.739290  0.377610  1.0  0.876
  Cd  Cd21  1  0.220960  0.279630  0.018620  1.0  0.853
  Cd  Cd22  1  0.994250  0.760710  0.877610  1.0  0.8768
  Cd  Cd23  1  0.720960  0.220370  0.981380  1.0  0.8532
  Cd  Cd24  1  0.494250  0.739290  0.122390  1.0  0.8785
  Cd  Cd25  1  0.779040  0.279630  0.481380  1.0  0.8543
  Cd  Cd26  1  0.005750  0.760710  0.622390  1.0  0.8778
  Cd  Cd27  1  0.500000  0.239740  0.250000  1.0  1.047
  Cd  Cd28  1  0.000000  0.260260  0.750000  1.0  1.0469
  H  H29  1  0.624100  0.665500  0.696300  1.0  0.4164
  H  H30  1  0.373900  0.852800  0.709000  1.0  0.435
  H  H31  1  0.624100  0.802400  0.620400  1.0  0.1265
  H  H32  1  0.610400  0.069800  0.704200  1.0  0.1166
  H  H33  1  0.708100  0.082200  0.600400  1.0  0.1258
  H  H34  1  0.721400  0.503500  0.701300  1.0  0.1132
  H  H35  1  0.779200  0.359600  0.690900  1.0  0.1214
  H  H36  1  0.752500  0.181600  0.669000  1.0  0.1162
  H  H37  1  0.357500  0.723900  0.637600  1.0  0.1228
  H  H38  1  0.275000  0.438500  0.623200  1.0  0.1252
  H  H39  1  0.389800  0.446300  0.711200  1.0  0.107
  H  H40  1  0.281500  0.016900  0.727400  1.0  0.1187
  H  H41  1  0.221800  0.161000  0.724900  1.0  0.1237
  H  H42  1  0.243900  0.337800  0.697600  1.0  0.1141
  H  H43  1  0.875900  0.834500  0.196300  1.0  0.4159
  H  H44  1  0.126100  0.647200  0.209000  1.0  0.4352
  H  H45  1  0.875900  0.697600  0.120400  1.0  0.126
  H  H46  1  0.889600  0.430200  0.204200  1.0  0.1167
  H  H47  1  0.791900  0.417800  0.100400  1.0  0.1254
  H  H48  1  0.778600  0.996500  0.201300  1.0  0.1124
  H  H49  1  0.720800  0.140400  0.190900  1.0  0.1234
  H  H50  1  0.747500  0.318400  0.169000  1.0  0.1161
  H  H51  1  0.142500  0.776100  0.137600  1.0  0.1221
  H  H52  1  0.225000  0.061500  0.123200  1.0  0.1254
  H  H53  1  0.110200  0.053700  0.211200  1.0  0.1068
  H  H54  1  0.218500  0.483100  0.227400  1.0  0.1185
  H  H55  1  0.278200  0.339000  0.224900  1.0  0.1231
  H  H56  1  0.256100  0.162200  0.197600  1.0  0.1143
  H  H57  1  0.375900  0.665500  0.803700  1.0  0.415
  H  H58  1  0.626100  0.852800  0.791000  1.0  0.4349
  H  H59  1  0.375900  0.802400  0.879600  1.0  0.1259
  H  H60  1  0.389600  0.069800  0.795800  1.0  0.1158
  H  H61  1  0.291900  0.082200  0.899600  1.0  0.1253
  H  H62  1  0.278600  0.503500  0.798700  1.0  0.1132
  H  H63  1  0.220800  0.359600  0.809100  1.0  0.123
  H  H64  1  0.247500  0.181600  0.831000  1.0  0.1159
  H  H65  1  0.642500  0.723900  0.862400  1.0  0.1233
  H  H66  1  0.725000  0.438500  0.876800  1.0  0.1241
  H  H67  1  0.610200  0.446300  0.788800  1.0  0.1073
  H  H68  1  0.718500  0.016900  0.772600  1.0  0.1182
  H  H69  1  0.778200  0.161000  0.775100  1.0  0.123
  H  H70  1  0.756100  0.337800  0.802400  1.0  0.1141
  H  H71  1  0.124100  0.834500  0.303700  1.0  0.4166
  H  H72  1  0.873900  0.647200  0.291000  1.0  0.4329
  H  H73  1  0.124100  0.697600  0.379600  1.0  0.1266
  H  H74  1  0.110400  0.430200  0.295800  1.0  0.1172
  H  H75  1  0.208100  0.417800  0.399600  1.0  0.1258
  H  H76  1  0.221400  0.996500  0.298700  1.0  0.1129
  H  H77  1  0.279200  0.140400  0.309100  1.0  0.1216
  H  H78  1  0.252500  0.318400  0.331000  1.0  0.1159
  H  H79  1  0.857500  0.776100  0.362400  1.0  0.122
  H  H80  1  0.775000  0.061500  0.376800  1.0  0.124
  H  H81  1  0.889800  0.053700  0.288800  1.0  0.1074
  H  H82  1  0.781500  0.483100  0.272600  1.0  0.1185
  H  H83  1  0.721800  0.339000  0.275100  1.0  0.1238
  H  H84  1  0.743900  0.162200  0.302400  1.0  0.114
  H  H85  1  0.375900  0.334500  0.303700  1.0  0.4158
  H  H86  1  0.626100  0.147200  0.291000  1.0  0.434
  H  H87  1  0.375900  0.197600  0.379600  1.0  0.1259
  H  H88  1  0.389600  0.930200  0.295800  1.0  0.1163
  H  H89  1  0.291900  0.917800  0.399600  1.0  0.1255
  H  H90  1  0.278600  0.496500  0.298700  1.0  0.1132
  H  H91  1  0.220800  0.640400  0.309100  1.0  0.123
  H  H92  1  0.247500  0.818400  0.331000  1.0  0.1158
  H  H93  1  0.642500  0.276100  0.362400  1.0  0.1231
  H  H94  1  0.725000  0.561500  0.376800  1.0  0.1238
  H  H95  1  0.610200  0.553700  0.288800  1.0  0.1077
  H  H96  1  0.718500  0.983100  0.272600  1.0  0.1184
  H  H97  1  0.778200  0.839000  0.275100  1.0  0.123
  H  H98  1  0.756100  0.662200  0.302400  1.0  0.1128
  H  H99  1  0.124100  0.165500  0.803700  1.0  0.4163
  H  H100  1  0.873900  0.352800  0.791000  1.0  0.4336
  H  H101  1  0.124100  0.302400  0.879600  1.0  0.1265
  H  H102  1  0.110400  0.569800  0.795800  1.0  0.1169
  H  H103  1  0.208100  0.582200  0.899600  1.0  0.1253
  H  H104  1  0.221400  0.003500  0.798700  1.0  0.1131
  H  H105  1  0.279200  0.859600  0.809100  1.0  0.1215
  H  H106  1  0.252500  0.681600  0.831000  1.0  0.1163
  H  H107  1  0.857500  0.223900  0.862400  1.0  0.1225
  H  H108  1  0.775000  0.938500  0.876800  1.0  0.1241
  H  H109  1  0.889800  0.946300  0.788800  1.0  0.1069
  H  H110  1  0.781500  0.516900  0.772600  1.0  0.1183
  H  H111  1  0.721800  0.661000  0.775100  1.0  0.1236
  H  H112  1  0.743900  0.837800  0.802400  1.0  0.1131
  H  H113  1  0.624100  0.334500  0.196300  1.0  0.4165
  H  H114  1  0.373900  0.147200  0.209000  1.0  0.4348
  H  H115  1  0.624100  0.197600  0.120400  1.0  0.1266
  H  H116  1  0.610400  0.930200  0.204200  1.0  0.1172
  H  H117  1  0.708100  0.917800  0.100400  1.0  0.1259
  H  H118  1  0.721400  0.496500  0.201300  1.0  0.1126
  H  H119  1  0.779200  0.640400  0.190900  1.0  0.1217
  H  H120  1  0.752500  0.818400  0.169000  1.0  0.1162
  H  H121  1  0.357500  0.276100  0.137600  1.0  0.123
  H  H122  1  0.275000  0.561500  0.123200  1.0  0.1252
  H  H123  1  0.389800  0.553700  0.211200  1.0  0.107
  H  H124  1  0.281500  0.983100  0.227400  1.0  0.1184
  H  H125  1  0.221800  0.839000  0.224900  1.0  0.1236
  H  H126  1  0.243900  0.662200  0.197600  1.0  0.1124
  H  H127  1  0.875900  0.165500  0.696300  1.0  0.4152
  H  H128  1  0.126100  0.352800  0.709000  1.0  0.4353
  H  H129  1  0.875900  0.302400  0.620400  1.0  0.1265
  H  H130  1  0.889600  0.569800  0.704200  1.0  0.1162
  H  H131  1  0.791900  0.582200  0.600400  1.0  0.1255
  H  H132  1  0.778600  0.003500  0.701300  1.0  0.1129
  H  H133  1  0.720800  0.859600  0.690900  1.0  0.1233
  H  H134  1  0.747500  0.681600  0.669000  1.0  0.1157
  H  H135  1  0.142500  0.223900  0.637600  1.0  0.1223
  H  H136  1  0.225000  0.938500  0.623200  1.0  0.1254
  H  H137  1  0.110200  0.946300  0.711200  1.0  0.107
  H  H138  1  0.218500  0.516900  0.727400  1.0  0.1187
  H  H139  1  0.278200  0.661000  0.724900  1.0  0.1231
  H  H140  1  0.256100  0.837800  0.697600  1.0  0.1131
  C  C141  1  0.690080  0.883100  0.561120  1.0  0.7005
  C  C142  1  0.668120  0.935900  0.603570  1.0  -0.1164
  C  C143  1  0.633140  0.875900  0.628800  1.0  0.0062
  C  C144  1  0.611560  0.926000  0.666667  1.0  -0.1203
  C  C145  1  0.625550  0.035800  0.679250  1.0  -0.0497
  C  C146  1  0.661800  0.095600  0.655020  1.0  0.069
  C  C147  1  0.683510  0.044000  0.616790  1.0  -0.0513
  C  C148  1  0.571450  0.864300  0.693210  1.0  0.7171
  C  C149  1  0.677930  0.212900  0.668330  1.0  0.0313
  C  C150  1  0.642800  0.302100  0.674550  1.0  -0.052
  C  C151  1  0.659380  0.411000  0.685930  1.0  -0.1114
  C  C152  1  0.710630  0.431400  0.692670  1.0  -0.0342
  C  C153  1  0.745140  0.345600  0.686590  1.0  -0.1037
  C  C154  1  0.728860  0.238500  0.673950  1.0  -0.1021
  C  C155  1  0.588350  0.279400  0.663080  1.0  0.69
  C  C156  1  0.622200  0.506400  0.688880  1.0  0.6782
  C  C157  1  0.424640  0.653000  0.698890  1.0  0.6919
  C  C158  1  0.380500  0.593600  0.677650  1.0  -0.12
  C  C159  1  0.350920  0.648700  0.645370  1.0  0.0077
  C  C160  1  0.311360  0.590300  0.624730  1.0  -0.1257
  C  C161  1  0.301130  0.477400  0.637260  1.0  -0.0452
  C  C162  1  0.329730  0.422000  0.670600  1.0  0.0372
  C  C163  1  0.369730  0.482200  0.689700  1.0  -0.0447
  C  C164  1  0.280310  0.645300  0.588860  1.0  0.7255
  C  C165  1  0.316760  0.304800  0.685590  1.0  -0.017
  C  C166  1  0.352700  0.215800  0.685510  1.0  -0.0452
  C  C167  1  0.338660  0.107100  0.700240  1.0  -0.1252
  C  C168  1  0.290180  0.088100  0.716030  1.0  -0.0666
  C  C169  1  0.254450  0.174500  0.715040  1.0  -0.0702
  C  C170  1  0.268100  0.280800  0.699200  1.0  -0.0956
  C  C171  1  0.375030  0.010900  0.697400  1.0  0.6707
  C  C172  1  0.404620  0.238500  0.666190  1.0  0.6909
  C  C173  1  0.809920  0.616900  0.061120  1.0  0.7014
  C  C174  1  0.831880  0.564100  0.103570  1.0  -0.1162
  C  C175  1  0.866860  0.624100  0.128800  1.0  0.0055
  C  C176  1  0.888440  0.574000  0.166720  1.0  -0.1179
  C  C177  1  0.874450  0.464200  0.179250  1.0  -0.0487
  C  C178  1  0.838200  0.404400  0.155020  1.0  0.0685
  C  C179  1  0.816490  0.456000  0.116790  1.0  -0.0514
  C  C180  1  0.928550  0.635700  0.193210  1.0  0.7183
  C  C181  1  0.822070  0.287100  0.168330  1.0  0.0311
  C  C182  1  0.857200  0.197900  0.174550  1.0  -0.0526
  C  C183  1  0.840620  0.089000  0.185930  1.0  -0.1119
  C  C184  1  0.789370  0.068600  0.192670  1.0  -0.0314
  C  C185  1  0.754860  0.154400  0.186590  1.0  -0.1026
  C  C186  1  0.771140  0.261500  0.173950  1.0  -0.1018
  C  C187  1  0.911650  0.220600  0.163080  1.0  0.6889
  C  C188  1  0.877800  0.993600  0.188880  1.0  0.6805
  C  C189  1  0.075360  0.847000  0.198890  1.0  0.6912
  C  C190  1  0.119500  0.906400  0.177650  1.0  -0.1208
  C  C191  1  0.149080  0.851300  0.145370  1.0  0.0125
  C  C192  1  0.188640  0.909700  0.124730  1.0  -0.1269
  C  C193  1  0.198870  0.022600  0.137260  1.0  -0.0451
  C  C194  1  0.170270  0.078000  0.170600  1.0  0.0378
  C  C195  1  0.130270  0.017800  0.189700  1.0  -0.0456
  C  C196  1  0.219690  0.854700  0.088860  1.0  0.7239
  C  C197  1  0.183240  0.195200  0.185590  1.0  -0.0177
  C  C198  1  0.147300  0.284200  0.185510  1.0  -0.0458
  C  C199  1  0.161340  0.392900  0.200240  1.0  -0.126
  C  C200  1  0.209820  0.411900  0.216030  1.0  -0.065
  C  C201  1  0.245550  0.325500  0.215040  1.0  -0.0704
  C  C202  1  0.231900  0.219200  0.199200  1.0  -0.0958
  C  C203  1  0.124970  0.489100  0.197400  1.0  0.6694
  C  C204  1  0.095380  0.261500  0.166190  1.0  0.6918
  C  C205  1  0.309920  0.883100  0.938880  1.0  0.7019
  C  C206  1  0.331880  0.935900  0.896430  1.0  -0.1062
  C  C207  1  0.366860  0.875900  0.871200  1.0  0.0085
  C  C208  1  0.388440  0.926000  0.833280  1.0  -0.1168
  C  C209  1  0.374450  0.035800  0.820750  1.0  -0.0486
  C  C210  1  0.338200  0.095600  0.844980  1.0  0.0706
  C  C211  1  0.316490  0.044000  0.883210  1.0  -0.0519
  C  C212  1  0.428550  0.864300  0.806790  1.0  0.7177
  C  C213  1  0.322070  0.212900  0.831670  1.0  0.0319
  C  C214  1  0.357200  0.302100  0.825450  1.0  -0.0527
  C  C215  1  0.340620  0.411000  0.814070  1.0  -0.1136
  C  C216  1  0.289370  0.431400  0.807330  1.0  -0.0321
  C  C217  1  0.254860  0.345600  0.813410  1.0  -0.1029
  C  C218  1  0.271140  0.238500  0.826050  1.0  -0.1009
  C  C219  1  0.411650  0.279400  0.836920  1.0  0.6886
  C  C220  1  0.377800  0.506400  0.811120  1.0  0.6805
  C  C221  1  0.575360  0.653000  0.801110  1.0  0.69
  C  C222  1  0.619500  0.593600  0.822350  1.0  -0.1227
  C  C223  1  0.649080  0.648700  0.854630  1.0  0.011
  C  C224  1  0.688640  0.590300  0.875270  1.0  -0.1263
  C  C225  1  0.698870  0.477400  0.862740  1.0  -0.0459
  C  C226  1  0.670270  0.422000  0.829400  1.0  0.0372
  C  C227  1  0.630270  0.482200  0.810300  1.0  -0.0463
  C  C228  1  0.719690  0.645300  0.911140  1.0  0.7278
  C  C229  1  0.683240  0.304800  0.814410  1.0  -0.0187
  C  C230  1  0.647300  0.215800  0.814490  1.0  -0.0456
  C  C231  1  0.661340  0.107100  0.799760  1.0  -0.1258
  C  C232  1  0.709820  0.088100  0.783970  1.0  -0.0667
  C  C233  1  0.745550  0.174500  0.784960  1.0  -0.0696
  C  C234  1  0.731900  0.280800  0.800800  1.0  -0.095
  C  C235  1  0.624970  0.010900  0.802600  1.0  0.6706
  C  C236  1  0.595380  0.238500  0.833810  1.0  0.6911
  C  C237  1  0.190080  0.616900  0.438880  1.0  0.7037
  C  C238  1  0.168120  0.564100  0.396430  1.0  -0.11
  C  C239  1  0.133140  0.624100  0.371200  1.0  0.0071
  C  C240  1  0.111560  0.574000  0.333280  1.0  -0.1173
  C  C241  1  0.125550  0.464200  0.320750  1.0  -0.0484
  C  C242  1  0.161800  0.404400  0.344980  1.0  0.0716
  C  C243  1  0.183510  0.456000  0.383210  1.0  -0.0504
  C  C244  1  0.071450  0.635700  0.306790  1.0  0.7182
  C  C245  1  0.177930  0.287100  0.331670  1.0  0.031
  C  C246  1  0.142800  0.197900  0.325450  1.0  -0.0532
  C  C247  1  0.159380  0.089000  0.314070  1.0  -0.1138
  C  C248  1  0.210630  0.068600  0.307330  1.0  -0.0339
  C  C249  1  0.245140  0.154400  0.313410  1.0  -0.103
  C  C250  1  0.228860  0.261500  0.326050  1.0  -0.1009
  C  C251  1  0.088350  0.220600  0.336920  1.0  0.6877
  C  C252  1  0.122200  0.993600  0.311120  1.0  0.6821
  C  C253  1  0.924640  0.847000  0.301110  1.0  0.6911
  C  C254  1  0.880500  0.906400  0.322350  1.0  -0.1207
  C  C255  1  0.850920  0.851300  0.354630  1.0  0.0108
  C  C256  1  0.811360  0.909700  0.375270  1.0  -0.1222
  C  C257  1  0.801130  0.022600  0.362740  1.0  -0.0461
  C  C258  1  0.829730  0.078000  0.329400  1.0  0.0357
  C  C259  1  0.869730  0.017800  0.310300  1.0  -0.045
  C  C260  1  0.780310  0.854700  0.411140  1.0  0.7271
  C  C261  1  0.816760  0.195200  0.314410  1.0  -0.0175
  C  C262  1  0.852700  0.284200  0.314490  1.0  -0.0449
  C  C263  1  0.838660  0.392900  0.299760  1.0  -0.1254
  C  C264  1  0.790180  0.411900  0.283970  1.0  -0.065
  C  C265  1  0.754450  0.325500  0.284960  1.0  -0.0697
  C  C266  1  0.768100  0.219200  0.300800  1.0  -0.0956
  C  C267  1  0.875030  0.489100  0.302600  1.0  0.6689
  C  C268  1  0.904620  0.261500  0.333810  1.0  0.6919
  C  C269  1  0.309920  0.116900  0.438880  1.0  0.7016
  C  C270  1  0.331880  0.064100  0.396430  1.0  -0.1062
  C  C271  1  0.366860  0.124100  0.371200  1.0  0.0077
  C  C272  1  0.388440  0.074000  0.333280  1.0  -0.117
  C  C273  1  0.374450  0.964200  0.320750  1.0  -0.0481
  C  C274  1  0.338200  0.904400  0.344980  1.0  0.0726
  C  C275  1  0.316490  0.956000  0.383210  1.0  -0.0514
  C  C276  1  0.428550  0.135700  0.306790  1.0  0.718
  C  C277  1  0.322070  0.787100  0.331670  1.0  0.0317
  C  C278  1  0.357200  0.697900  0.325450  1.0  -0.0523
  C  C279  1  0.340620  0.589000  0.314070  1.0  -0.1128
  C  C280  1  0.289370  0.568600  0.307330  1.0  -0.0319
  C  C281  1  0.254860  0.654400  0.313410  1.0  -0.1029
  C  C282  1  0.271140  0.761500  0.326050  1.0  -0.1011
  C  C283  1  0.411650  0.720600  0.336920  1.0  0.6892
  C  C284  1  0.377800  0.493600  0.311120  1.0  0.6828
  C  C285  1  0.575360  0.347000  0.301110  1.0  0.6897
  C  C286  1  0.619500  0.406400  0.322350  1.0  -0.122
  C  C287  1  0.649080  0.351300  0.354630  1.0  0.0117
  C  C288  1  0.688640  0.409700  0.375270  1.0  -0.1247
  C  C289  1  0.698870  0.522600  0.362740  1.0  -0.0454
  C  C290  1  0.670270  0.578000  0.329400  1.0  0.0359
  C  C291  1  0.630270  0.517800  0.310300  1.0  -0.0464
  C  C292  1  0.719690  0.354700  0.411140  1.0  0.7283
  C  C293  1  0.683240  0.695200  0.314410  1.0  -0.0184
  C  C294  1  0.647300  0.784200  0.314490  1.0  -0.046
  C  C295  1  0.661340  0.892900  0.299760  1.0  -0.1258
  C  C296  1  0.709820  0.911900  0.283970  1.0  -0.0648
  C  C297  1  0.745550  0.825500  0.284960  1.0  -0.0696
  C  C298  1  0.731900  0.719200  0.300800  1.0  -0.0955
  C  C299  1  0.624970  0.989100  0.302600  1.0  0.6685
  C  C300  1  0.595380  0.761500  0.333810  1.0  0.6905
  C  C301  1  0.190080  0.383100  0.938880  1.0  0.7041
  C  C302  1  0.168120  0.435900  0.896430  1.0  -0.1097
  C  C303  1  0.133140  0.375900  0.871200  1.0  0.0077
  C  C304  1  0.111560  0.426000  0.833280  1.0  -0.1171
  C  C305  1  0.125550  0.535800  0.820750  1.0  -0.0488
  C  C306  1  0.161800  0.595600  0.844980  1.0  0.0696
  C  C307  1  0.183510  0.544000  0.883210  1.0  -0.0507
  C  C308  1  0.071450  0.364300  0.806790  1.0  0.718
  C  C309  1  0.177930  0.712900  0.831670  1.0  0.0312
  C  C310  1  0.142800  0.802100  0.825450  1.0  -0.0535
  C  C311  1  0.159380  0.911000  0.814070  1.0  -0.114
  C  C312  1  0.210630  0.931400  0.807330  1.0  -0.0335
  C  C313  1  0.245140  0.845600  0.813410  1.0  -0.103
  C  C314  1  0.228860  0.738500  0.826050  1.0  -0.101
  C  C315  1  0.088350  0.779400  0.836920  1.0  0.6873
  C  C316  1  0.122200  0.006400  0.811120  1.0  0.6797
  C  C317  1  0.924640  0.153000  0.801110  1.0  0.6914
  C  C318  1  0.880500  0.093600  0.822350  1.0  -0.1218
  C  C319  1  0.850920  0.148700  0.854630  1.0  0.0101
  C  C320  1  0.811360  0.090300  0.875270  1.0  -0.1232
  C  C321  1  0.801130  0.977400  0.862740  1.0  -0.0466
  C  C322  1  0.829730  0.922000  0.829400  1.0  0.0373
  C  C323  1  0.869730  0.982200  0.810300  1.0  -0.045
  C  C324  1  0.780310  0.145300  0.911140  1.0  0.7268
  C  C325  1  0.816760  0.804800  0.814410  1.0  -0.0179
  C  C326  1  0.852700  0.715800  0.814490  1.0  -0.0444
  C  C327  1  0.838660  0.607100  0.799760  1.0  -0.1253
  C  C328  1  0.790180  0.588100  0.783970  1.0  -0.0665
  C  C329  1  0.754450  0.674500  0.784960  1.0  -0.0698
  C  C330  1  0.768100  0.780800  0.800800  1.0  -0.0954
  C  C331  1  0.875030  0.510900  0.802600  1.0  0.6716
  C  C332  1  0.904620  0.738500  0.833810  1.0  0.6925
  C  C333  1  0.690080  0.116900  0.061120  1.0  0.7006
  C  C334  1  0.668120  0.064100  0.103570  1.0  -0.1151
  C  C335  1  0.633140  0.124100  0.128800  1.0  0.0083
  C  C336  1  0.611560  0.074000  0.166720  1.0  -0.1179
  C  C337  1  0.625550  0.964200  0.179250  1.0  -0.0484
  C  C338  1  0.661800  0.904400  0.155020  1.0  0.069
  C  C339  1  0.683510  0.956000  0.116790  1.0  -0.0516
  C  C340  1  0.571450  0.135700  0.193210  1.0  0.7176
  C  C341  1  0.677930  0.787100  0.168330  1.0  0.0312
  C  C342  1  0.642800  0.697900  0.174550  1.0  -0.0518
  C  C343  1  0.659380  0.589000  0.185930  1.0  -0.1117
  C  C344  1  0.710630  0.568600  0.192670  1.0  -0.0338
  C  C345  1  0.745140  0.654400  0.186590  1.0  -0.1035
  C  C346  1  0.728860  0.761500  0.173950  1.0  -0.1017
  C  C347  1  0.588350  0.720600  0.163080  1.0  0.6904
  C  C348  1  0.622200  0.493600  0.188880  1.0  0.6817
  C  C349  1  0.424640  0.347000  0.198890  1.0  0.6919
  C  C350  1  0.380500  0.406400  0.177650  1.0  -0.1204
  C  C351  1  0.350920  0.351300  0.145370  1.0  0.0089
  C  C352  1  0.311360  0.409700  0.124730  1.0  -0.1265
  C  C353  1  0.301130  0.522600  0.137260  1.0  -0.045
  C  C354  1  0.329730  0.578000  0.170600  1.0  0.0379
  C  C355  1  0.369730  0.517800  0.189700  1.0  -0.0447
  C  C356  1  0.280310  0.354700  0.088860  1.0  0.7258
  C  C357  1  0.316760  0.695200  0.185590  1.0  -0.017
  C  C358  1  0.352700  0.784200  0.185510  1.0  -0.0457
  C  C359  1  0.338660  0.892900  0.200240  1.0  -0.1254
  C  C360  1  0.290180  0.911900  0.216030  1.0  -0.0653
  C  C361  1  0.254450  0.825500  0.215040  1.0  -0.0702
  C  C362  1  0.268100  0.719200  0.199200  1.0  -0.0956
  C  C363  1  0.375030  0.989100  0.197400  1.0  0.6674
  C  C364  1  0.404620  0.761500  0.166190  1.0  0.6906
  C  C365  1  0.809920  0.383100  0.561120  1.0  0.701
  C  C366  1  0.831880  0.435900  0.603570  1.0  -0.1171
  C  C367  1  0.866860  0.375900  0.628800  1.0  0.0041
  C  C368  1  0.888440  0.426000  0.666667  1.0  -0.1192
  C  C369  1  0.874450  0.535800  0.679250  1.0  -0.0503
  C  C370  1  0.838200  0.595600  0.655020  1.0  0.0684
  C  C371  1  0.816490  0.544000  0.616790  1.0  -0.0522
  C  C372  1  0.928550  0.364300  0.693210  1.0  0.7177
  C  C373  1  0.822070  0.712900  0.668330  1.0  0.0309
  C  C374  1  0.857200  0.802100  0.674550  1.0  -0.0527
  C  C375  1  0.840620  0.911000  0.685930  1.0  -0.1122
  C  C376  1  0.789370  0.931400  0.692670  1.0  -0.0327
  C  C377  1  0.754860  0.845600  0.686590  1.0  -0.1029
  C  C378  1  0.771140  0.738500  0.673950  1.0  -0.102
  C  C379  1  0.911650  0.779400  0.663080  1.0  0.6886
  C  C380  1  0.877800  0.006400  0.688880  1.0  0.6776
  C  C381  1  0.075360  0.153000  0.698890  1.0  0.6913
  C  C382  1  0.119500  0.093600  0.677650  1.0  -0.1203
  C  C383  1  0.149080  0.148700  0.645370  1.0  0.0122
  C  C384  1  0.188640  0.090300  0.624730  1.0  -0.1258
  C  C385  1  0.198870  0.977400  0.637260  1.0  -0.0461
  C  C386  1  0.170270  0.922000  0.670600  1.0  0.0367
  C  C387  1  0.130270  0.982200  0.689700  1.0  -0.0457
  C  C388  1  0.219690  0.145300  0.588860  1.0  0.7233
  C  C389  1  0.183240  0.804800  0.685590  1.0  -0.0178
  C  C390  1  0.147300  0.715800  0.685510  1.0  -0.0453
  C  C391  1  0.161340  0.607100  0.700240  1.0  -0.1263
  C  C392  1  0.209820  0.588100  0.716030  1.0  -0.0667
  C  C393  1  0.245550  0.674500  0.715040  1.0  -0.0703
  C  C394  1  0.231900  0.780800  0.699200  1.0  -0.0955
  C  C395  1  0.124970  0.510900  0.697400  1.0  0.6725
  C  C396  1  0.095380  0.738500  0.666190  1.0  0.6921
  O  O397  1  0.720340  0.938400  0.537860  1.0  -0.646
  O  O398  1  0.675320  0.785900  0.549390  1.0  -0.6238
  O  O399  1  0.568290  0.757100  0.691570  1.0  -0.6454
  O  O400  1  0.540930  0.919900  0.716140  1.0  -0.6338
  O  O401  1  0.577790  0.287000  0.621060  1.0  -0.5766
  O  O402  1  0.556440  0.252200  0.692030  1.0  -0.7328
  O  O403  1  0.642480  0.607500  0.694820  1.0  -0.5041
  O  O404  1  0.577540  0.493200  0.685780  1.0  -0.5689
  O  O405  1  0.458920  0.597100  0.716140  1.0  -0.6357
  O  O406  1  0.427330  0.762100  0.699020  1.0  -0.6582
  O  O407  1  0.275490  0.750300  0.587400  1.0  -0.5906
  O  O408  1  0.259630  0.581500  0.560050  1.0  -0.5897
  O  O409  1  0.355810  0.911400  0.709140  1.0  -0.5015
  O  O410  1  0.418430  0.022400  0.686000  1.0  -0.5623
  O  O411  1  0.408760  0.234800  0.623550  1.0  -0.5711
  O  O412  1  0.440880  0.263200  0.691200  1.0  -0.6982
  O  O413  1  0.779660  0.561600  0.037860  1.0  -0.6438
  O  O414  1  0.824680  0.714100  0.049390  1.0  -0.6253
  O  O415  1  0.931710  0.742900  0.191570  1.0  -0.645
  O  O416  1  0.959070  0.580100  0.216140  1.0  -0.6333
  O  O417  1  0.922210  0.213000  0.121060  1.0  -0.5722
  O  O418  1  0.943560  0.247800  0.192030  1.0  -0.7334
  O  O419  1  0.857520  0.892500  0.194820  1.0  -0.5051
  O  O420  1  0.922460  0.006800  0.185780  1.0  -0.5683
  O  O421  1  0.041080  0.902900  0.216140  1.0  -0.6355
  O  O422  1  0.072670  0.737900  0.199020  1.0  -0.6578
  O  O423  1  0.224510  0.749700  0.087400  1.0  -0.592
  O  O424  1  0.240370  0.918500  0.060050  1.0  -0.592
  O  O425  1  0.144190  0.588600  0.209140  1.0  -0.4994
  O  O426  1  0.081570  0.477600  0.186000  1.0  -0.5607
  O  O427  1  0.091240  0.265200  0.123550  1.0  -0.5751
  O  O428  1  0.059120  0.236800  0.191200  1.0  -0.698
  O  O429  1  0.279660  0.938400  0.962140  1.0  -0.6476
  O  O430  1  0.324680  0.785900  0.950610  1.0  -0.6233
  O  O431  1  0.431710  0.757100  0.808430  1.0  -0.6445
  O  O432  1  0.459070  0.919900  0.783860  1.0  -0.6336
  O  O433  1  0.422210  0.287000  0.878940  1.0  -0.579
  O  O434  1  0.443560  0.252200  0.807970  1.0  -0.731
  O  O435  1  0.357520  0.607500  0.805180  1.0  -0.5064
  O  O436  1  0.422460  0.493200  0.814220  1.0  -0.568
  O  O437  1  0.541080  0.597100  0.783860  1.0  -0.6367
  O  O438  1  0.572670  0.762100  0.800980  1.0  -0.6581
  O  O439  1  0.724510  0.750300  0.912600  1.0  -0.5916
  O  O440  1  0.740370  0.581500  0.939950  1.0  -0.5917
  O  O441  1  0.644190  0.911400  0.790860  1.0  -0.4996
  O  O442  1  0.581570  0.022400  0.814000  1.0  -0.562
  O  O443  1  0.591240  0.234800  0.876450  1.0  -0.5736
  O  O444  1  0.559120  0.263200  0.808800  1.0  -0.6977
  O  O445  1  0.220340  0.561600  0.462140  1.0  -0.6446
  O  O446  1  0.175320  0.714100  0.450610  1.0  -0.6241
  O  O447  1  0.068290  0.742900  0.308430  1.0  -0.6459
  O  O448  1  0.040930  0.580100  0.283860  1.0  -0.6338
  O  O449  1  0.077790  0.213000  0.378940  1.0  -0.5794
  O  O450  1  0.056440  0.247800  0.307970  1.0  -0.7315
  O  O451  1  0.142480  0.892500  0.305180  1.0  -0.5039
  O  O452  1  0.077540  0.006800  0.314220  1.0  -0.5682
  O  O453  1  0.958920  0.902900  0.283860  1.0  -0.6357
  O  O454  1  0.927330  0.737900  0.300980  1.0  -0.6568
  O  O455  1  0.775490  0.749700  0.412600  1.0  -0.5948
  O  O456  1  0.759630  0.918500  0.439950  1.0  -0.592
  O  O457  1  0.855810  0.588600  0.290860  1.0  -0.5002
  O  O458  1  0.918430  0.477600  0.314000  1.0  -0.5615
  O  O459  1  0.908760  0.265200  0.376450  1.0  -0.5735
  O  O460  1  0.940880  0.236800  0.308800  1.0  -0.6976
  O  O461  1  0.279660  0.061600  0.462140  1.0  -0.6427
  O  O462  1  0.324680  0.214100  0.450610  1.0  -0.6218
  O  O463  1  0.431710  0.242900  0.308430  1.0  -0.6447
  O  O464  1  0.459070  0.080100  0.283860  1.0  -0.6326
  O  O465  1  0.422210  0.713000  0.378940  1.0  -0.5783
  O  O466  1  0.443560  0.747800  0.307970  1.0  -0.7312
  O  O467  1  0.357520  0.392500  0.305180  1.0  -0.5057
  O  O468  1  0.422460  0.506800  0.314220  1.0  -0.5683
  O  O469  1  0.541080  0.402900  0.283860  1.0  -0.6358
  O  O470  1  0.572670  0.237900  0.300980  1.0  -0.657
  O  O471  1  0.724510  0.249700  0.412600  1.0  -0.5945
  O  O472  1  0.740370  0.418500  0.439950  1.0  -0.5918
  O  O473  1  0.644190  0.088600  0.290860  1.0  -0.4991
  O  O474  1  0.581570  0.977600  0.314000  1.0  -0.5609
  O  O475  1  0.591240  0.765200  0.376450  1.0  -0.574
  O  O476  1  0.559120  0.736800  0.308800  1.0  -0.6979
  O  O477  1  0.220340  0.438400  0.962140  1.0  -0.643
  O  O478  1  0.175320  0.285900  0.950610  1.0  -0.6245
  O  O479  1  0.068290  0.257100  0.808430  1.0  -0.6444
  O  O480  1  0.040930  0.419900  0.783860  1.0  -0.6342
  O  O481  1  0.077790  0.787000  0.878940  1.0  -0.5802
  O  O482  1  0.056440  0.752200  0.807970  1.0  -0.7316
  O  O483  1  0.142480  0.107500  0.805180  1.0  -0.5045
  O  O484  1  0.077540  0.993200  0.814220  1.0  -0.5676
  O  O485  1  0.958920  0.097100  0.783860  1.0  -0.6354
  O  O486  1  0.927330  0.262100  0.800980  1.0  -0.6579
  O  O487  1  0.775490  0.250300  0.912600  1.0  -0.5926
  O  O488  1  0.759630  0.081500  0.939950  1.0  -0.592
  O  O489  1  0.855810  0.411400  0.790860  1.0  -0.5012
  O  O490  1  0.918430  0.522400  0.814000  1.0  -0.5625
  O  O491  1  0.908760  0.734800  0.876450  1.0  -0.5734
  O  O492  1  0.940880  0.763200  0.808800  1.0  -0.6978
  O  O493  1  0.720340  0.061600  0.037860  1.0  -0.6474
  O  O494  1  0.675320  0.214100  0.049390  1.0  -0.6253
  O  O495  1  0.568290  0.242900  0.191570  1.0  -0.6455
  O  O496  1  0.540930  0.080100  0.216140  1.0  -0.6339
  O  O497  1  0.577790  0.713000  0.121060  1.0  -0.5768
  O  O498  1  0.556440  0.747800  0.192030  1.0  -0.7329
  O  O499  1  0.642480  0.392500  0.194820  1.0  -0.504
  O  O500  1  0.577540  0.506800  0.185780  1.0  -0.5692
  O  O501  1  0.458920  0.402900  0.216140  1.0  -0.6357
  O  O502  1  0.427330  0.237900  0.199020  1.0  -0.6577
  O  O503  1  0.275490  0.249700  0.087400  1.0  -0.5929
  O  O504  1  0.259630  0.418500  0.060050  1.0  -0.5928
  O  O505  1  0.355810  0.088600  0.209140  1.0  -0.5003
  O  O506  1  0.418430  0.977600  0.186000  1.0  -0.5617
  O  O507  1  0.408760  0.765200  0.123550  1.0  -0.5716
  O  O508  1  0.440880  0.736800  0.191200  1.0  -0.698
  O  O509  1  0.779660  0.438400  0.537860  1.0  -0.6487
  O  O510  1  0.824680  0.285900  0.549390  1.0  -0.624
  O  O511  1  0.931710  0.257100  0.691570  1.0  -0.6453
  O  O512  1  0.959070  0.419900  0.716140  1.0  -0.6341
  O  O513  1  0.922210  0.787000  0.621060  1.0  -0.5721
  O  O514  1  0.943560  0.752200  0.692030  1.0  -0.7331
  O  O515  1  0.857520  0.107500  0.694820  1.0  -0.5055
  O  O516  1  0.922460  0.993200  0.685780  1.0  -0.5684
  O  O517  1  0.041080  0.097100  0.716140  1.0  -0.637
  O  O518  1  0.072670  0.262100  0.699020  1.0  -0.6578
  O  O519  1  0.224510  0.250300  0.587400  1.0  -0.5918
  O  O520  1  0.240370  0.081500  0.560050  1.0  -0.5899
  O  O521  1  0.144190  0.411400  0.709140  1.0  -0.5
  O  O522  1  0.081570  0.522400  0.686000  1.0  -0.5612
  O  O523  1  0.091240  0.734800  0.623550  1.0  -0.5748
  O  O524  1  0.059120  0.763200  0.691200  1.0  -0.6978
