# generated using pymatgen
data_V7P8(HO6)6
_symmetry_space_group_name_H-M   'P 1'
_cell_length_a   20.67400000
_cell_length_b   9.95600000
_cell_length_c   23.69400000
_cell_angle_alpha   90.00000000
_cell_angle_beta   101.15400000
_cell_angle_gamma   90.00000000
_symmetry_Int_Tables_number   1
_chemical_formula_structural   V7P8(HO6)6
_chemical_formula_sum   'V28 P32 H24 O144'
_cell_volume   4784.82250189
_cell_formula_units_Z   4
loop_
 _symmetry_equiv_pos_site_id
 _symmetry_equiv_pos_as_xyz
  1  'x, y, z'
loop_
 _atom_site_type_symbol
 _atom_site_label
 _atom_site_symmetry_multiplicity
 _atom_site_fract_x
 _atom_site_fract_y
 _atom_site_fract_z
 _atom_site_occupancy
 _atom_site_charge
  V  V1  1  0.778570  0.090010  0.722470  1.0  1.3104
  V  V2  1  0.673970  0.094210  0.827210  1.0  1.3364
  V  V3  1  0.560100  0.422830  0.935820  1.0  1.3237
  V  V4  1  0.278570  0.590010  0.722470  1.0  1.3104
  V  V5  1  0.173970  0.594210  0.827210  1.0  1.3364
  V  V6  1  0.060100  0.922830  0.935820  1.0  1.3237
  V  V7  1  0.221430  0.090010  0.777530  1.0  1.3102
  V  V8  1  0.326030  0.094210  0.672790  1.0  1.3372
  V  V9  1  0.439900  0.422830  0.564180  1.0  1.3232
  V  V10  1  0.721430  0.590010  0.777530  1.0  1.3102
  V  V11  1  0.826030  0.594210  0.672790  1.0  1.3372
  V  V12  1  0.939900  0.922830  0.564180  1.0  1.3232
  V  V13  1  0.221430  0.909990  0.277530  1.0  1.3111
  V  V14  1  0.326030  0.905790  0.172790  1.0  1.3376
  V  V15  1  0.439900  0.577170  0.064180  1.0  1.3232
  V  V16  1  0.721430  0.409990  0.277530  1.0  1.3111
  V  V17  1  0.826030  0.405790  0.172790  1.0  1.3376
  V  V18  1  0.939900  0.077170  0.064180  1.0  1.3232
  V  V19  1  0.778570  0.909990  0.222470  1.0  1.3095
  V  V20  1  0.673970  0.905790  0.327210  1.0  1.3364
  V  V21  1  0.560100  0.577170  0.435820  1.0  1.3233
  V  V22  1  0.278570  0.409990  0.222470  1.0  1.3095
  V  V23  1  0.173970  0.405790  0.327210  1.0  1.3364
  V  V24  1  0.060100  0.077170  0.435820  1.0  1.3233
  V  V25  1  0.750000  0.250000  0.000000  1.0  1.6231
  V  V26  1  0.250000  0.250000  0.500000  1.0  1.6231
  V  V27  1  0.250000  0.750000  0.000000  1.0  1.6231
  V  V28  1  0.750000  0.750000  0.500000  1.0  1.6231
  P  P29  1  0.606860  0.128200  0.939430  1.0  1.7974
  P  P30  1  0.689510  0.384100  0.876280  1.0  1.8285
  P  P31  1  0.785570  0.874700  0.825010  1.0  1.855
  P  P32  1  0.442460  0.314200  0.995660  1.0  1.8662
  P  P33  1  0.106860  0.628200  0.939430  1.0  1.7974
  P  P34  1  0.189510  0.884100  0.876280  1.0  1.8285
  P  P35  1  0.285570  0.374700  0.825010  1.0  1.855
  P  P36  1  0.942460  0.814200  0.995660  1.0  1.8662
  P  P37  1  0.393140  0.128200  0.560570  1.0  1.7988
  P  P38  1  0.310490  0.384100  0.623720  1.0  1.8282
  P  P39  1  0.214430  0.874700  0.674990  1.0  1.8549
  P  P40  1  0.557540  0.314200  0.504340  1.0  1.8653
  P  P41  1  0.893140  0.628200  0.560570  1.0  1.7988
  P  P42  1  0.810490  0.884100  0.623720  1.0  1.8282
  P  P43  1  0.714430  0.374700  0.674990  1.0  1.8549
  P  P44  1  0.057540  0.814200  0.504340  1.0  1.8653
  P  P45  1  0.393140  0.871800  0.060570  1.0  1.7995
  P  P46  1  0.310490  0.615900  0.123720  1.0  1.8293
  P  P47  1  0.214430  0.125300  0.174990  1.0  1.8549
  P  P48  1  0.557540  0.685800  0.004340  1.0  1.8665
  P  P49  1  0.893140  0.371800  0.060570  1.0  1.7995
  P  P50  1  0.810490  0.115900  0.123720  1.0  1.8293
  P  P51  1  0.714430  0.625300  0.174990  1.0  1.8549
  P  P52  1  0.057540  0.185800  0.004340  1.0  1.8665
  P  P53  1  0.606860  0.871800  0.439430  1.0  1.7988
  P  P54  1  0.689510  0.615900  0.376280  1.0  1.8293
  P  P55  1  0.785570  0.125300  0.325010  1.0  1.855
  P  P56  1  0.442460  0.685800  0.495660  1.0  1.8665
  P  P57  1  0.106860  0.371800  0.439430  1.0  1.7988
  P  P58  1  0.189510  0.115900  0.376280  1.0  1.8293
  P  P59  1  0.285570  0.625300  0.325010  1.0  1.855
  P  P60  1  0.942460  0.185800  0.495660  1.0  1.8665
  H  H61  1  0.687300  0.501900  0.013700  1.0  0.2993
  H  H62  1  0.733100  0.248500  0.781600  1.0  0.3891
  H  H63  1  0.386800  0.312300  0.909000  1.0  0.4061
  H  H64  1  0.187300  0.001900  0.013700  1.0  0.2993
  H  H65  1  0.233100  0.748500  0.781600  1.0  0.3891
  H  H66  1  0.886800  0.812300  0.909000  1.0  0.4061
  H  H67  1  0.312700  0.501900  0.486300  1.0  0.3004
  H  H68  1  0.266900  0.248500  0.718400  1.0  0.3885
  H  H69  1  0.613200  0.312300  0.591000  1.0  0.4075
  H  H70  1  0.812700  0.001900  0.486300  1.0  0.3004
  H  H71  1  0.766900  0.748500  0.718400  1.0  0.3885
  H  H72  1  0.113200  0.812300  0.591000  1.0  0.4077
  H  H73  1  0.312700  0.498100  0.986300  1.0  0.2993
  H  H74  1  0.266900  0.751500  0.218400  1.0  0.3882
  H  H75  1  0.613200  0.687700  0.091000  1.0  0.4076
  H  H76  1  0.812700  0.998100  0.986300  1.0  0.2993
  H  H77  1  0.766900  0.251500  0.218400  1.0  0.3882
  H  H78  1  0.113200  0.187700  0.091000  1.0  0.4072
  H  H79  1  0.687300  0.498100  0.513700  1.0  0.2986
  H  H80  1  0.733100  0.751500  0.281600  1.0  0.3886
  H  H81  1  0.386800  0.687700  0.409000  1.0  0.4057
  H  H82  1  0.187300  0.998100  0.513700  1.0  0.2986
  H  H83  1  0.233100  0.251500  0.281600  1.0  0.3886
  H  H84  1  0.886800  0.187700  0.409000  1.0  0.4057
  O  O85  1  0.734600  0.945900  0.854500  1.0  -0.7818
  O  O86  1  0.742600  0.163400  0.787400  1.0  -0.8849
  O  O87  1  0.639800  0.048300  0.898000  1.0  -0.7816
  O  O88  1  0.651400  0.289500  0.829800  1.0  -0.7381
  O  O89  1  0.642000  0.462700  0.906000  1.0  -0.7844
  O  O90  1  0.514800  0.341300  0.995600  1.0  -0.7487
  O  O91  1  0.434000  0.213100  0.041500  1.0  -0.5994
  O  O92  1  0.408100  0.252400  0.936100  1.0  -0.5306
  O  O93  1  0.594600  0.556000  0.996600  1.0  -0.7754
  O  O94  1  0.565100  0.239900  0.908600  1.0  -0.7584
  O  O95  1  0.738500  0.298700  0.918200  1.0  -0.7952
  O  O96  1  0.656800  0.185400  0.990300  1.0  -0.7827
  O  O97  1  0.561200  0.033100  0.966900  1.0  -0.5793
  O  O98  1  0.725300  0.222800  0.671300  1.0  -0.7864
  O  O99  1  0.768700  0.985800  0.650000  1.0  -0.7736
  O  O100  1  0.776000  0.915800  0.761200  1.0  -0.7903
  O  O101  1  0.854800  0.910700  0.856200  1.0  -0.6982
  O  O102  1  0.721900  0.427100  0.024000  1.0  -0.6357
  O  O103  1  0.234600  0.445900  0.854500  1.0  -0.7818
  O  O104  1  0.242600  0.663400  0.787400  1.0  -0.8849
  O  O105  1  0.139800  0.548300  0.898000  1.0  -0.7816
  O  O106  1  0.151400  0.789500  0.829800  1.0  -0.7381
  O  O107  1  0.142000  0.962700  0.906000  1.0  -0.7844
  O  O108  1  0.014800  0.841300  0.995600  1.0  -0.7487
  O  O109  1  0.934000  0.713100  0.041500  1.0  -0.5994
  O  O110  1  0.908100  0.752400  0.936100  1.0  -0.5306
  O  O111  1  0.094600  0.056000  0.996600  1.0  -0.7754
  O  O112  1  0.065100  0.739900  0.908600  1.0  -0.7584
  O  O113  1  0.238500  0.798700  0.918200  1.0  -0.7952
  O  O114  1  0.156800  0.685400  0.990300  1.0  -0.7827
  O  O115  1  0.061200  0.533100  0.966900  1.0  -0.5793
  O  O116  1  0.225300  0.722800  0.671300  1.0  -0.7864
  O  O117  1  0.268700  0.485800  0.650000  1.0  -0.7736
  O  O118  1  0.276000  0.415800  0.761200  1.0  -0.7903
  O  O119  1  0.354800  0.410700  0.856200  1.0  -0.6982
  O  O120  1  0.221900  0.927100  0.024000  1.0  -0.6357
  O  O121  1  0.265400  0.945900  0.645500  1.0  -0.7794
  O  O122  1  0.257400  0.163400  0.712600  1.0  -0.8859
  O  O123  1  0.360200  0.048300  0.602000  1.0  -0.7815
  O  O124  1  0.348600  0.289500  0.670200  1.0  -0.7386
  O  O125  1  0.358000  0.462700  0.594000  1.0  -0.7821
  O  O126  1  0.485200  0.341300  0.504400  1.0  -0.7475
  O  O127  1  0.566000  0.213100  0.458500  1.0  -0.6003
  O  O128  1  0.591900  0.252400  0.563900  1.0  -0.5322
  O  O129  1  0.405400  0.556000  0.503400  1.0  -0.7757
  O  O130  1  0.434900  0.239900  0.591400  1.0  -0.7593
  O  O131  1  0.261500  0.298700  0.581800  1.0  -0.7953
  O  O132  1  0.343200  0.185400  0.509700  1.0  -0.7845
  O  O133  1  0.438800  0.033100  0.533100  1.0  -0.5802
  O  O134  1  0.274700  0.222800  0.828700  1.0  -0.7844
  O  O135  1  0.231300  0.985800  0.850000  1.0  -0.7724
  O  O136  1  0.224000  0.915800  0.738800  1.0  -0.7908
  O  O137  1  0.145200  0.910700  0.643800  1.0  -0.6962
  O  O138  1  0.278100  0.427100  0.476000  1.0  -0.6372
  O  O139  1  0.765400  0.445900  0.645500  1.0  -0.7794
  O  O140  1  0.757400  0.663400  0.712600  1.0  -0.8859
  O  O141  1  0.860200  0.548300  0.602000  1.0  -0.7815
  O  O142  1  0.848600  0.789500  0.670200  1.0  -0.7386
  O  O143  1  0.858000  0.962700  0.594000  1.0  -0.7821
  O  O144  1  0.985200  0.841300  0.504400  1.0  -0.7475
  O  O145  1  0.066000  0.713100  0.458500  1.0  -0.6003
  O  O146  1  0.091900  0.752400  0.563900  1.0  -0.5318
  O  O147  1  0.905400  0.056000  0.503400  1.0  -0.7757
  O  O148  1  0.934900  0.739900  0.591400  1.0  -0.7593
  O  O149  1  0.761500  0.798700  0.581800  1.0  -0.7953
  O  O150  1  0.843200  0.685400  0.509700  1.0  -0.7845
  O  O151  1  0.938800  0.533100  0.533100  1.0  -0.5802
  O  O152  1  0.774700  0.722800  0.828700  1.0  -0.7844
  O  O153  1  0.731300  0.485800  0.850000  1.0  -0.7724
  O  O154  1  0.724000  0.415800  0.738800  1.0  -0.7908
  O  O155  1  0.645200  0.410700  0.643800  1.0  -0.6962
  O  O156  1  0.778100  0.927100  0.476000  1.0  -0.6372
  O  O157  1  0.265400  0.054100  0.145500  1.0  -0.7801
  O  O158  1  0.257400  0.836600  0.212600  1.0  -0.8869
  O  O159  1  0.360200  0.951700  0.102000  1.0  -0.7829
  O  O160  1  0.348600  0.710500  0.170200  1.0  -0.739
  O  O161  1  0.358000  0.537300  0.094000  1.0  -0.7837
  O  O162  1  0.485200  0.658700  0.004400  1.0  -0.7477
  O  O163  1  0.566000  0.786900  0.958500  1.0  -0.6011
  O  O164  1  0.591900  0.747600  0.063900  1.0  -0.532
  O  O165  1  0.405400  0.444000  0.003400  1.0  -0.7753
  O  O166  1  0.434900  0.760100  0.091400  1.0  -0.7599
  O  O167  1  0.261500  0.701300  0.081800  1.0  -0.795
  O  O168  1  0.343200  0.814600  0.009700  1.0  -0.784
  O  O169  1  0.438800  0.966900  0.033100  1.0  -0.5803
  O  O170  1  0.274700  0.777200  0.328700  1.0  -0.7859
  O  O171  1  0.231300  0.014200  0.350000  1.0  -0.7714
  O  O172  1  0.224000  0.084200  0.238800  1.0  -0.7907
  O  O173  1  0.145200  0.089300  0.143800  1.0  -0.6971
  O  O174  1  0.278100  0.572900  0.976000  1.0  -0.6353
  O  O175  1  0.765400  0.554100  0.145500  1.0  -0.7801
  O  O176  1  0.757400  0.336600  0.212600  1.0  -0.8869
  O  O177  1  0.860200  0.451700  0.102000  1.0  -0.7829
  O  O178  1  0.848600  0.210500  0.170200  1.0  -0.739
  O  O179  1  0.858000  0.037300  0.094000  1.0  -0.7837
  O  O180  1  0.985200  0.158700  0.004400  1.0  -0.7477
  O  O181  1  0.066000  0.286900  0.958500  1.0  -0.6011
  O  O182  1  0.091900  0.247600  0.063900  1.0  -0.532
  O  O183  1  0.905400  0.944000  0.003400  1.0  -0.7753
  O  O184  1  0.934900  0.260100  0.091400  1.0  -0.7599
  O  O185  1  0.761500  0.201300  0.081800  1.0  -0.795
  O  O186  1  0.843200  0.314600  0.009700  1.0  -0.784
  O  O187  1  0.938800  0.466900  0.033100  1.0  -0.5803
  O  O188  1  0.774700  0.277200  0.328700  1.0  -0.7859
  O  O189  1  0.731300  0.514200  0.350000  1.0  -0.7714
  O  O190  1  0.724000  0.584200  0.238800  1.0  -0.7907
  O  O191  1  0.645200  0.589300  0.143800  1.0  -0.6971
  O  O192  1  0.778100  0.072900  0.976000  1.0  -0.6353
  O  O193  1  0.734600  0.054100  0.354500  1.0  -0.7819
  O  O194  1  0.742600  0.836600  0.287400  1.0  -0.8862
  O  O195  1  0.639800  0.951700  0.398000  1.0  -0.7841
  O  O196  1  0.651400  0.710500  0.329800  1.0  -0.7381
  O  O197  1  0.642000  0.537300  0.406000  1.0  -0.7812
  O  O198  1  0.514800  0.658700  0.495600  1.0  -0.7493
  O  O199  1  0.434000  0.786900  0.541500  1.0  -0.6002
  O  O200  1  0.408100  0.747600  0.436100  1.0  -0.5311
  O  O201  1  0.594600  0.444000  0.496600  1.0  -0.7752
  O  O202  1  0.565100  0.760100  0.408600  1.0  -0.7589
  O  O203  1  0.738500  0.701300  0.418200  1.0  -0.795
  O  O204  1  0.656800  0.814600  0.490300  1.0  -0.7829
  O  O205  1  0.561200  0.966900  0.466900  1.0  -0.5799
  O  O206  1  0.725300  0.777200  0.171300  1.0  -0.785
  O  O207  1  0.768700  0.014200  0.150000  1.0  -0.7721
  O  O208  1  0.776000  0.084200  0.261200  1.0  -0.7904
  O  O209  1  0.854800  0.089300  0.356200  1.0  -0.6997
  O  O210  1  0.721900  0.572900  0.524000  1.0  -0.6338
  O  O211  1  0.234600  0.554100  0.354500  1.0  -0.7819
  O  O212  1  0.242600  0.336600  0.287400  1.0  -0.8862
  O  O213  1  0.139800  0.451700  0.398000  1.0  -0.7841
  O  O214  1  0.151400  0.210500  0.329800  1.0  -0.7381
  O  O215  1  0.142000  0.037300  0.406000  1.0  -0.7812
  O  O216  1  0.014800  0.158700  0.495600  1.0  -0.7493
  O  O217  1  0.934000  0.286900  0.541500  1.0  -0.6002
  O  O218  1  0.908100  0.247600  0.436100  1.0  -0.5311
  O  O219  1  0.094600  0.944000  0.496600  1.0  -0.7752
  O  O220  1  0.065100  0.260100  0.408600  1.0  -0.7589
  O  O221  1  0.238500  0.201300  0.418200  1.0  -0.795
  O  O222  1  0.156800  0.314600  0.490300  1.0  -0.7829
  O  O223  1  0.061200  0.466900  0.466900  1.0  -0.5799
  O  O224  1  0.225300  0.277200  0.171300  1.0  -0.785
  O  O225  1  0.268700  0.514200  0.150000  1.0  -0.7721
  O  O226  1  0.276000  0.584200  0.261200  1.0  -0.7904
  O  O227  1  0.354800  0.589300  0.356200  1.0  -0.6997
  O  O228  1  0.221900  0.072900  0.524000  1.0  -0.6338
