# generated using pymatgen
data_Zn4H15C18SN20O7
_symmetry_space_group_name_H-M   'P 1'
_cell_length_a   14.68140000
_cell_length_b   24.28870000
_cell_length_c   9.96090000
_cell_angle_alpha   90.00000000
_cell_angle_beta   98.39200000
_cell_angle_gamma   90.00000000
_symmetry_Int_Tables_number   1
_chemical_formula_structural   Zn4H15C18SN20O7
_chemical_formula_sum   'Zn16 H60 C72 S4 N80 O28'
_cell_volume   3513.94642336
_cell_formula_units_Z   4
loop_
 _symmetry_equiv_pos_site_id
 _symmetry_equiv_pos_as_xyz
  1  'x, y, z'
loop_
 _atom_site_type_symbol
 _atom_site_label
 _atom_site_symmetry_multiplicity
 _atom_site_fract_x
 _atom_site_fract_y
 _atom_site_fract_z
 _atom_site_occupancy
 _atom_site_charge
  Zn  Zn1  1  0.427100  0.124490  0.125050  1.0  0.7782
  Zn  Zn2  1  0.199400  0.185910  0.562400  1.0  0.8431
  Zn  Zn3  1  0.927100  0.624490  0.125050  1.0  0.7782
  Zn  Zn4  1  0.699400  0.685910  0.562400  1.0  0.8431
  Zn  Zn5  1  0.572900  0.124490  0.874950  1.0  0.7779
  Zn  Zn6  1  0.800600  0.185910  0.437600  1.0  0.8443
  Zn  Zn7  1  0.072900  0.624490  0.874950  1.0  0.7779
  Zn  Zn8  1  0.300600  0.685910  0.437600  1.0  0.8443
  Zn  Zn9  1  0.572900  0.875510  0.874950  1.0  0.7787
  Zn  Zn10  1  0.800600  0.814090  0.437600  1.0  0.8453
  Zn  Zn11  1  0.072900  0.375510  0.874950  1.0  0.7787
  Zn  Zn12  1  0.300600  0.314090  0.437600  1.0  0.8453
  Zn  Zn13  1  0.427100  0.875510  0.125050  1.0  0.7789
  Zn  Zn14  1  0.199400  0.814090  0.562400  1.0  0.8432
  Zn  Zn15  1  0.927100  0.375510  0.125050  1.0  0.7789
  Zn  Zn16  1  0.699400  0.314090  0.562400  1.0  0.8432
  H  H17  1  0.957800  0.082400  0.749200  1.0  0.1021
  H  H18  1  0.583700  0.175200  0.349200  1.0  0.0678
  H  H19  1  0.396900  0.245100  0.222400  1.0  0.0679
  H  H20  1  0.780700  0.134000  0.998100  1.0  0.3672
  H  H21  1  0.835100  0.151100  0.129600  1.0  0.3559
  H  H22  1  0.275200  0.086400  0.446000  1.0  0.3392
  H  H23  1  0.320600  0.070300  0.327500  1.0  0.337
  H  H24  1  0.457800  0.582400  0.749200  1.0  0.1021
  H  H25  1  0.083700  0.675200  0.349200  1.0  0.0678
  H  H26  1  0.896900  0.745100  0.222400  1.0  0.0679
  H  H27  1  0.280700  0.634000  0.998100  1.0  0.3672
  H  H28  1  0.335100  0.651100  0.129600  1.0  0.3559
  H  H29  1  0.775200  0.586400  0.446000  1.0  0.3392
  H  H30  1  0.820600  0.570300  0.327500  1.0  0.337
  H  H31  1  0.042200  0.082400  0.250800  1.0  0.1016
  H  H32  1  0.416300  0.175200  0.650800  1.0  0.0685
  H  H33  1  0.603100  0.245100  0.777600  1.0  0.0682
  H  H34  1  0.219300  0.134000  0.001900  1.0  0.3674
  H  H35  1  0.164900  0.151100  0.870400  1.0  0.3564
  H  H36  1  0.724800  0.086400  0.554000  1.0  0.3383
  H  H37  1  0.679400  0.070300  0.672500  1.0  0.3375
  H  H38  1  0.542200  0.582400  0.250800  1.0  0.1016
  H  H39  1  0.916300  0.675200  0.650800  1.0  0.0685
  H  H40  1  0.103100  0.745100  0.777600  1.0  0.0682
  H  H41  1  0.719300  0.634000  0.001900  1.0  0.3674
  H  H42  1  0.664900  0.651100  0.870400  1.0  0.3564
  H  H43  1  0.224800  0.586400  0.554000  1.0  0.3383
  H  H44  1  0.179400  0.570300  0.672500  1.0  0.3375
  H  H45  1  0.042200  0.917600  0.250800  1.0  0.1017
  H  H46  1  0.416300  0.824800  0.650800  1.0  0.0684
  H  H47  1  0.603100  0.754900  0.777600  1.0  0.0683
  H  H48  1  0.219300  0.866000  0.001900  1.0  0.3676
  H  H49  1  0.164900  0.848900  0.870400  1.0  0.357
  H  H50  1  0.724800  0.913600  0.554000  1.0  0.3381
  H  H51  1  0.679400  0.929700  0.672500  1.0  0.3372
  H  H52  1  0.542200  0.417600  0.250800  1.0  0.1017
  H  H53  1  0.916300  0.324800  0.650800  1.0  0.0684
  H  H54  1  0.103100  0.254900  0.777600  1.0  0.0683
  H  H55  1  0.719300  0.366000  0.001900  1.0  0.3676
  H  H56  1  0.664900  0.348900  0.870400  1.0  0.357
  H  H57  1  0.224800  0.413600  0.554000  1.0  0.3381
  H  H58  1  0.179400  0.429700  0.672500  1.0  0.3372
  H  H59  1  0.957800  0.917600  0.749200  1.0  0.1019
  H  H60  1  0.583700  0.824800  0.349200  1.0  0.0678
  H  H61  1  0.396900  0.754900  0.222400  1.0  0.068
  H  H62  1  0.780700  0.866000  0.998100  1.0  0.3674
  H  H63  1  0.835100  0.848900  0.129600  1.0  0.3562
  H  H64  1  0.275200  0.913600  0.446000  1.0  0.3386
  H  H65  1  0.320600  0.929700  0.327500  1.0  0.3373
  H  H66  1  0.457800  0.417600  0.749200  1.0  0.1019
  H  H67  1  0.083700  0.324800  0.349200  1.0  0.0678
  H  H68  1  0.896900  0.254900  0.222400  1.0  0.068
  H  H69  1  0.280700  0.366000  0.998100  1.0  0.3674
  H  H70  1  0.335100  0.348900  0.129600  1.0  0.3562
  H  H71  1  0.775200  0.413600  0.446000  1.0  0.3386
  H  H72  1  0.820600  0.429700  0.327500  1.0  0.3373
  H  H73  1  0.146100  0.000000  0.573200  1.0  0.0996
  H  H74  1  0.646100  0.500000  0.573200  1.0  0.0996
  H  H75  1  0.853900  0.000000  0.426800  1.0  0.1003
  H  H76  1  0.353900  0.500000  0.426800  1.0  0.1003
  C  C77  1  0.059000  0.049480  0.656700  1.0  -0.1565
  C  C78  1  0.983300  0.049320  0.726300  1.0  0.0046
  C  C79  1  0.101400  0.102770  0.621500  1.0  0.6584
  C  C80  1  0.702800  0.150030  0.136300  1.0  0.605
  C  C81  1  0.608500  0.165770  0.271600  1.0  0.2749
  C  C82  1  0.366900  0.221060  0.274000  1.0  0.2558
  C  C83  1  0.315000  0.148450  0.351000  1.0  0.5965
  C  C84  1  0.481900  0.026200  0.286100  1.0  0.1283
  C  C85  1  0.559000  0.549480  0.656700  1.0  -0.1565
  C  C86  1  0.483300  0.549320  0.726300  1.0  0.0046
  C  C87  1  0.601400  0.602770  0.621500  1.0  0.6584
  C  C88  1  0.202800  0.650030  0.136300  1.0  0.605
  C  C89  1  0.108500  0.665770  0.271600  1.0  0.2749
  C  C90  1  0.866900  0.721060  0.274000  1.0  0.2558
  C  C91  1  0.815000  0.648450  0.351000  1.0  0.5965
  C  C92  1  0.981900  0.526200  0.286100  1.0  0.1283
  C  C93  1  0.941000  0.049480  0.343300  1.0  -0.1562
  C  C94  1  0.016700  0.049320  0.273700  1.0  0.0038
  C  C95  1  0.898600  0.102770  0.378500  1.0  0.6574
  C  C96  1  0.297200  0.150030  0.863700  1.0  0.6041
  C  C97  1  0.391500  0.165770  0.728400  1.0  0.2763
  C  C98  1  0.633100  0.221060  0.726000  1.0  0.2551
  C  C99  1  0.685000  0.148450  0.649000  1.0  0.5966
  C  C100  1  0.518100  0.026200  0.713900  1.0  0.1297
  C  C101  1  0.441000  0.549480  0.343300  1.0  -0.1562
  C  C102  1  0.516700  0.549320  0.273700  1.0  0.0038
  C  C103  1  0.398600  0.602770  0.378500  1.0  0.6574
  C  C104  1  0.797200  0.650030  0.863700  1.0  0.6041
  C  C105  1  0.891500  0.665770  0.728400  1.0  0.2763
  C  C106  1  0.133100  0.721060  0.726000  1.0  0.2551
  C  C107  1  0.185000  0.648450  0.649000  1.0  0.5966
  C  C108  1  0.018100  0.526200  0.713900  1.0  0.1297
  C  C109  1  0.941000  0.950520  0.343300  1.0  -0.1567
  C  C110  1  0.016700  0.950680  0.273700  1.0  0.0079
  C  C111  1  0.898600  0.897230  0.378500  1.0  0.6579
  C  C112  1  0.297200  0.849970  0.863700  1.0  0.6047
  C  C113  1  0.391500  0.834230  0.728400  1.0  0.2763
  C  C114  1  0.633100  0.778940  0.726000  1.0  0.2564
  C  C115  1  0.685000  0.851550  0.649000  1.0  0.5967
  C  C116  1  0.441000  0.450520  0.343300  1.0  -0.1567
  C  C117  1  0.516700  0.450680  0.273700  1.0  0.0079
  C  C118  1  0.398600  0.397230  0.378500  1.0  0.6579
  C  C119  1  0.797200  0.349970  0.863700  1.0  0.6047
  C  C120  1  0.891500  0.334230  0.728400  1.0  0.2763
  C  C121  1  0.133100  0.278940  0.726000  1.0  0.2564
  C  C122  1  0.185000  0.351550  0.649000  1.0  0.5967
  C  C123  1  0.059000  0.950520  0.656700  1.0  -0.1564
  C  C124  1  0.983300  0.950680  0.726300  1.0  0.0086
  C  C125  1  0.101400  0.897230  0.621500  1.0  0.6583
  C  C126  1  0.702800  0.849970  0.136300  1.0  0.6055
  C  C127  1  0.608500  0.834230  0.271600  1.0  0.2756
  C  C128  1  0.366900  0.778940  0.274000  1.0  0.256
  C  C129  1  0.315000  0.851550  0.351000  1.0  0.5967
  C  C130  1  0.559000  0.450520  0.656700  1.0  -0.1564
  C  C131  1  0.483300  0.450680  0.726300  1.0  0.0086
  C  C132  1  0.601400  0.397230  0.621500  1.0  0.6583
  C  C133  1  0.202800  0.349970  0.136300  1.0  0.6055
  C  C134  1  0.108500  0.334230  0.271600  1.0  0.2756
  C  C135  1  0.866900  0.278940  0.274000  1.0  0.256
  C  C136  1  0.815000  0.351550  0.351000  1.0  0.5967
  C  C137  1  0.946200  0.000000  0.761400  1.0  -0.2266
  C  C138  1  0.096200  0.000000  0.621000  1.0  -0.0049
  C  C139  1  0.408600  0.000000  0.096800  1.0  0.5668
  C  C140  1  0.446200  0.500000  0.761400  1.0  -0.2266
  C  C141  1  0.596200  0.500000  0.621000  1.0  -0.0049
  C  C142  1  0.908600  0.500000  0.096800  1.0  0.5668
  C  C143  1  0.053800  0.000000  0.238600  1.0  -0.2277
  C  C144  1  0.903800  0.000000  0.379000  1.0  -0.0041
  C  C145  1  0.591400  0.000000  0.903200  1.0  0.5694
  C  C146  1  0.553800  0.500000  0.238600  1.0  -0.2277
  C  C147  1  0.403800  0.500000  0.379000  1.0  -0.0041
  C  C148  1  0.091400  0.500000  0.903200  1.0  0.5694
  S  S149  1  0.850320  0.000000  0.851700  1.0  1.3858
  S  S150  1  0.350320  0.500000  0.851700  1.0  1.3858
  S  S151  1  0.149680  0.000000  0.148300  1.0  1.3836
  S  S152  1  0.649680  0.500000  0.148300  1.0  1.3836
  N  N153  1  0.558200  0.150480  0.158200  1.0  -0.3027
  N  N154  1  0.620000  0.140390  0.067800  1.0  -0.3533
  N  N155  1  0.699100  0.166500  0.265200  1.0  -0.5114
  N  N156  1  0.363800  0.166170  0.255200  1.0  -0.4891
  N  N157  1  0.288600  0.189560  0.423800  1.0  -0.2969
  N  N158  1  0.323100  0.236960  0.372800  1.0  -0.2677
  N  N159  1  0.432500  0.045150  0.161700  1.0  -0.4058
  N  N160  1  0.782800  0.144300  0.081100  1.0  -0.7746
  N  N161  1  0.302100  0.095500  0.378000  1.0  -0.7402
  N  N162  1  0.481900  0.973800  0.286100  1.0  -0.1624
  N  N163  1  0.058200  0.650480  0.158200  1.0  -0.3027
  N  N164  1  0.120000  0.640390  0.067800  1.0  -0.3533
  N  N165  1  0.199100  0.666500  0.265200  1.0  -0.5114
  N  N166  1  0.863800  0.666170  0.255200  1.0  -0.4891
  N  N167  1  0.788600  0.689560  0.423800  1.0  -0.2969
  N  N168  1  0.823100  0.736960  0.372800  1.0  -0.2677
  N  N169  1  0.932500  0.545150  0.161700  1.0  -0.4058
  N  N170  1  0.282800  0.644300  0.081100  1.0  -0.7746
  N  N171  1  0.802100  0.595500  0.378000  1.0  -0.7402
  N  N172  1  0.981900  0.473800  0.286100  1.0  -0.1624
  N  N173  1  0.441800  0.150480  0.841800  1.0  -0.3022
  N  N174  1  0.380000  0.140390  0.932200  1.0  -0.3533
  N  N175  1  0.300900  0.166500  0.734800  1.0  -0.5123
  N  N176  1  0.636200  0.166170  0.744800  1.0  -0.4881
  N  N177  1  0.711400  0.189560  0.576200  1.0  -0.2976
  N  N178  1  0.676900  0.236960  0.627200  1.0  -0.2676
  N  N179  1  0.567500  0.045150  0.838300  1.0  -0.4067
  N  N180  1  0.217200  0.144300  0.918900  1.0  -0.7755
  N  N181  1  0.697900  0.095500  0.622000  1.0  -0.7411
  N  N182  1  0.518100  0.973800  0.713900  1.0  -0.1634
  N  N183  1  0.941800  0.650480  0.841800  1.0  -0.3022
  N  N184  1  0.880000  0.640390  0.932200  1.0  -0.3533
  N  N185  1  0.800900  0.666500  0.734800  1.0  -0.5123
  N  N186  1  0.136200  0.666170  0.744800  1.0  -0.4881
  N  N187  1  0.211400  0.689560  0.576200  1.0  -0.2976
  N  N188  1  0.176900  0.736960  0.627200  1.0  -0.2676
  N  N189  1  0.067500  0.545150  0.838300  1.0  -0.4067
  N  N190  1  0.717200  0.644300  0.918900  1.0  -0.7755
  N  N191  1  0.197900  0.595500  0.622000  1.0  -0.7411
  N  N192  1  0.018100  0.473800  0.713900  1.0  -0.1634
  N  N193  1  0.441800  0.849520  0.841800  1.0  -0.3016
  N  N194  1  0.380000  0.859610  0.932200  1.0  -0.3532
  N  N195  1  0.300900  0.833500  0.734800  1.0  -0.5124
  N  N196  1  0.636200  0.833830  0.744800  1.0  -0.4871
  N  N197  1  0.711400  0.810440  0.576200  1.0  -0.2972
  N  N198  1  0.676900  0.763040  0.627200  1.0  -0.2685
  N  N199  1  0.567500  0.954850  0.838300  1.0  -0.3485
  N  N200  1  0.217200  0.855700  0.918900  1.0  -0.7755
  N  N201  1  0.697900  0.904500  0.622000  1.0  -0.7411
  N  N202  1  0.941800  0.349520  0.841800  1.0  -0.3016
  N  N203  1  0.880000  0.359610  0.932200  1.0  -0.3532
  N  N204  1  0.800900  0.333500  0.734800  1.0  -0.5124
  N  N205  1  0.136200  0.333830  0.744800  1.0  -0.4871
  N  N206  1  0.211400  0.310440  0.576200  1.0  -0.2972
  N  N207  1  0.176900  0.263040  0.627200  1.0  -0.2685
  N  N208  1  0.067500  0.454850  0.838300  1.0  -0.3485
  N  N209  1  0.717200  0.355700  0.918900  1.0  -0.7755
  N  N210  1  0.197900  0.404500  0.622000  1.0  -0.7411
  N  N211  1  0.558200  0.849520  0.158200  1.0  -0.3029
  N  N212  1  0.620000  0.859610  0.067800  1.0  -0.3532
  N  N213  1  0.699100  0.833500  0.265200  1.0  -0.5114
  N  N214  1  0.363800  0.833830  0.255200  1.0  -0.4885
  N  N215  1  0.288600  0.810440  0.423800  1.0  -0.2964
  N  N216  1  0.323100  0.763040  0.372800  1.0  -0.2682
  N  N217  1  0.432500  0.954850  0.161700  1.0  -0.3486
  N  N218  1  0.782800  0.855700  0.081100  1.0  -0.7747
  N  N219  1  0.302100  0.904500  0.378000  1.0  -0.7408
  N  N220  1  0.058200  0.349520  0.158200  1.0  -0.3029
  N  N221  1  0.120000  0.359610  0.067800  1.0  -0.3532
  N  N222  1  0.199100  0.333500  0.265200  1.0  -0.5114
  N  N223  1  0.863800  0.333830  0.255200  1.0  -0.4885
  N  N224  1  0.788600  0.310440  0.423800  1.0  -0.2964
  N  N225  1  0.823100  0.263040  0.372800  1.0  -0.2682
  N  N226  1  0.932500  0.454850  0.161700  1.0  -0.3486
  N  N227  1  0.282800  0.355700  0.081100  1.0  -0.7747
  N  N228  1  0.802100  0.404500  0.378000  1.0  -0.7408
  N  N229  1  0.355400  0.000000  0.968400  1.0  -0.3198
  N  N230  1  0.855400  0.500000  0.968400  1.0  -0.3198
  N  N231  1  0.644600  0.000000  0.031600  1.0  -0.3234
  N  N232  1  0.144600  0.500000  0.031600  1.0  -0.3234
  O  O233  1  0.162600  0.102190  0.546700  1.0  -0.6149
  O  O234  1  0.077200  0.147150  0.669600  1.0  -0.6101
  O  O235  1  0.856700  0.050200  0.929100  1.0  -0.6207
  O  O236  1  0.662600  0.602190  0.546700  1.0  -0.6149
  O  O237  1  0.577200  0.647150  0.669600  1.0  -0.6101
  O  O238  1  0.356700  0.550200  0.929100  1.0  -0.6207
  O  O239  1  0.837400  0.102190  0.453300  1.0  -0.6148
  O  O240  1  0.922800  0.147150  0.330400  1.0  -0.6099
  O  O241  1  0.143300  0.050200  0.070900  1.0  -0.6216
  O  O242  1  0.337400  0.602190  0.453300  1.0  -0.6148
  O  O243  1  0.422800  0.647150  0.330400  1.0  -0.6099
  O  O244  1  0.643300  0.550200  0.070900  1.0  -0.6216
  O  O245  1  0.837400  0.897810  0.453300  1.0  -0.6145
  O  O246  1  0.922800  0.852850  0.330400  1.0  -0.6094
  O  O247  1  0.143300  0.949800  0.070900  1.0  -0.623
  O  O248  1  0.337400  0.397810  0.453300  1.0  -0.6145
  O  O249  1  0.422800  0.352850  0.330400  1.0  -0.6094
  O  O250  1  0.643300  0.449800  0.070900  1.0  -0.623
  O  O251  1  0.162600  0.897810  0.546700  1.0  -0.6146
  O  O252  1  0.077200  0.852850  0.669600  1.0  -0.6091
  O  O253  1  0.856700  0.949800  0.929100  1.0  -0.6219
  O  O254  1  0.662600  0.397810  0.546700  1.0  -0.6146
  O  O255  1  0.577200  0.352850  0.669600  1.0  -0.6091
  O  O256  1  0.356700  0.449800  0.929100  1.0  -0.6219
  O  O257  1  0.770200  0.000000  0.751900  1.0  -0.5471
  O  O258  1  0.270200  0.500000  0.751900  1.0  -0.5471
  O  O259  1  0.229800  0.000000  0.248100  1.0  -0.5473
  O  O260  1  0.729800  0.500000  0.248100  1.0  -0.5473
