# generated using pymatgen
data_Zn5H45C99O20
_symmetry_space_group_name_H-M   'P 1'
_cell_length_a   20.25870000
_cell_length_b   21.50100000
_cell_length_c   22.38790000
_cell_angle_alpha   110.79800000
_cell_angle_beta   108.64200000
_cell_angle_gamma   106.05400000
_symmetry_Int_Tables_number   1
_chemical_formula_structural   Zn5H45C99O20
_chemical_formula_sum   'Zn10 H90 C198 O40'
_cell_volume   7755.52087935
_cell_formula_units_Z   2
loop_
 _symmetry_equiv_pos_site_id
 _symmetry_equiv_pos_as_xyz
  1  'x, y, z'
loop_
 _atom_site_type_symbol
 _atom_site_label
 _atom_site_symmetry_multiplicity
 _atom_site_fract_x
 _atom_site_fract_y
 _atom_site_fract_z
 _atom_site_occupancy
 _atom_site_charge
  Zn  Zn1  1  0.376080  0.616750  0.432080  1.0  1.1032
  Zn  Zn2  1  0.263100  0.678580  0.361530  1.0  1.0752
  Zn  Zn3  1  0.556000  0.815330  0.432080  1.0  1.1035
  Zn  Zn4  1  0.598430  0.682950  0.361530  1.0  1.0737
  Zn  Zn5  1  0.401620  0.651620  0.303240  1.0  1.1205
  Zn  Zn6  1  0.623920  0.383250  0.567920  1.0  1.1053
  Zn  Zn7  1  0.736900  0.321420  0.638470  1.0  1.0751
  Zn  Zn8  1  0.444000  0.184670  0.567920  1.0  1.1023
  Zn  Zn9  1  0.401570  0.317050  0.638470  1.0  1.0747
  Zn  Zn10  1  0.598380  0.348380  0.696760  1.0  1.1213
  H  H11  1  0.586600  0.909000  0.622200  1.0  0.1181
  H  H12  1  0.796300  0.091600  0.992400  1.0  0.1231
  H  H13  1  0.069900  0.044100  0.944000  1.0  0.1197
  H  H14  1  0.650700  0.971900  0.748200  1.0  0.1152
  H  H15  1  0.001200  0.846500  0.941200  1.0  0.1195
  H  H16  1  0.160400  0.035000  0.128200  1.0  0.1047
  H  H17  1  0.738700  0.901200  0.640200  1.0  0.1091
  H  H18  1  0.787900  0.731200  0.555400  1.0  0.1145
  H  H19  1  0.296200  0.280000  0.258800  1.0  0.1206
  H  H20  1  0.833600  0.939300  0.754200  1.0  0.1083
  H  H21  1  0.360800  0.407700  0.326800  1.0  0.1052
  H  H22  1  0.086300  0.276500  0.233000  1.0  0.1122
  H  H23  1  0.266300  0.806700  0.250400  1.0  0.1032
  H  H24  1  0.881800  0.768700  0.669800  1.0  0.1073
  H  H25  1  0.191800  0.393900  0.302800  1.0  0.099
  H  H26  1  0.049300  0.484900  0.251400  1.0  0.1114
  H  H27  1  0.278000  0.425000  0.149400  1.0  0.1192
  H  H28  1  0.236400  0.862100  0.179000  1.0  0.1135
  H  H29  1  0.943000  0.370000  0.187600  1.0  0.1287
  H  H30  1  0.051600  0.738700  0.229000  1.0  0.1164
  H  H31  1  0.019400  0.793200  0.157400  1.0  0.1265
  H  H32  1  0.222700  0.298200  0.079600  1.0  0.1174
  H  H33  1  0.535600  0.713200  0.622200  1.0  0.1181
  H  H34  1  0.696100  0.900800  0.992400  1.0  0.1245
  H  H35  1  0.374100  0.899900  0.944000  1.0  0.1193
  H  H36  1  0.597500  0.776300  0.748200  1.0  0.114
  H  H37  1  0.440000  0.094700  0.941200  1.0  0.1187
  H  H38  1  0.467800  0.093200  0.128200  1.0  0.105
  H  H39  1  0.401500  0.739000  0.640200  1.0  0.1085
  H  H40  1  0.267500  0.824200  0.555400  1.0  0.116
  H  H41  1  0.462600  0.978800  0.258800  1.0  0.1193
  H  H42  1  0.420600  0.814900  0.754200  1.0  0.108
  H  H43  1  0.466000  0.919100  0.326800  1.0  0.1061
  H  H44  1  0.646700  0.956500  0.233000  1.0  0.1119
  H  H45  1  0.484100  0.443700  0.250400  1.0  0.1033
  H  H46  1  0.288000  0.901100  0.669800  1.0  0.1081
  H  H47  1  0.611000  0.908900  0.302800  1.0  0.0991
  H  H48  1  0.702100  0.766500  0.251400  1.0  0.1119
  H  H49  1  0.371400  0.724400  0.149400  1.0  0.1196
  H  H50  1  0.442600  0.316900  0.179000  1.0  0.1136
  H  H51  1  0.744600  0.817600  0.187600  1.0  0.1283
  H  H52  1  0.677400  0.490300  0.229000  1.0  0.116
  H  H53  1  0.638000  0.364200  0.157400  1.0  0.1276
  H  H54  1  0.356900  0.781400  0.079600  1.0  0.1176
  H  H55  1  0.841100  0.091100  0.182200  1.0  0.1235
  H  H56  1  0.413400  0.091000  0.377800  1.0  0.1184
  H  H57  1  0.203700  0.908400  0.007600  1.0  0.1239
  H  H58  1  0.930100  0.955900  0.056000  1.0  0.1211
  H  H59  1  0.349300  0.028100  0.251800  1.0  0.1155
  H  H60  1  0.998800  0.153500  0.058800  1.0  0.1193
  H  H61  1  0.839600  0.965000  0.871800  1.0  0.1059
  H  H62  1  0.261300  0.098800  0.359800  1.0  0.1086
  H  H63  1  0.212100  0.268800  0.444600  1.0  0.1148
  H  H64  1  0.703800  0.720000  0.741200  1.0  0.1202
  H  H65  1  0.166400  0.060700  0.245800  1.0  0.1076
  H  H66  1  0.639200  0.592300  0.673200  1.0  0.1054
  H  H67  1  0.913700  0.723500  0.767000  1.0  0.112
  H  H68  1  0.733700  0.193300  0.749600  1.0  0.1034
  H  H69  1  0.118200  0.231300  0.330200  1.0  0.1073
  H  H70  1  0.808200  0.606100  0.697200  1.0  0.0989
  H  H71  1  0.950700  0.515100  0.748600  1.0  0.1114
  H  H72  1  0.722000  0.575000  0.850600  1.0  0.1194
  H  H73  1  0.763600  0.137900  0.821000  1.0  0.1137
  H  H74  1  0.057000  0.630000  0.812400  1.0  0.129
  H  H75  1  0.948400  0.261300  0.771000  1.0  0.1164
  H  H76  1  0.980600  0.206800  0.842600  1.0  0.1269
  H  H77  1  0.777300  0.701800  0.920400  1.0  0.1169
  H  H78  1  0.464400  0.286800  0.377800  1.0  0.1175
  H  H79  1  0.303900  0.099200  0.007600  1.0  0.1239
  H  H80  1  0.625900  0.100100  0.056000  1.0  0.1182
  H  H81  1  0.402500  0.223700  0.251800  1.0  0.1139
  H  H82  1  0.560000  0.905300  0.058800  1.0  0.1189
  H  H83  1  0.532200  0.906800  0.871800  1.0  0.106
  H  H84  1  0.598500  0.261000  0.359800  1.0  0.1093
  H  H85  1  0.732500  0.175800  0.444600  1.0  0.116
  H  H86  1  0.537400  0.021200  0.741200  1.0  0.1196
  H  H87  1  0.579400  0.185100  0.245800  1.0  0.1076
  H  H88  1  0.534000  0.080900  0.673200  1.0  0.1055
  H  H89  1  0.353300  0.043500  0.767000  1.0  0.1115
  H  H90  1  0.515900  0.556300  0.749600  1.0  0.1045
  H  H91  1  0.712000  0.098900  0.330200  1.0  0.1076
  H  H92  1  0.389000  0.091100  0.697200  1.0  0.0986
  H  H93  1  0.297900  0.233500  0.748600  1.0  0.1127
  H  H94  1  0.628600  0.275600  0.850600  1.0  0.1189
  H  H95  1  0.557400  0.683100  0.821000  1.0  0.1139
  H  H96  1  0.255400  0.182400  0.812400  1.0  0.1286
  H  H97  1  0.322600  0.509700  0.771000  1.0  0.1163
  H  H98  1  0.362000  0.635800  0.842600  1.0  0.1275
  H  H99  1  0.643100  0.218600  0.920400  1.0  0.1179
  H  H100  1  0.158900  0.908900  0.817800  1.0  0.1235
  C  C101  1  0.363300  0.511940  0.288880  1.0  0.694
  C  C102  1  0.589170  0.881940  0.647760  1.0  -0.0429
  C  C103  1  0.789460  0.065390  0.018080  1.0  -0.0479
  C  C104  1  0.072210  0.016110  0.968660  1.0  -0.0976
  C  C105  1  0.972250  0.905240  0.856120  1.0  -0.0158
  C  C106  1  0.753250  0.811300  0.586240  1.0  -0.1302
  C  C107  1  0.121860  0.051870  0.042540  1.0  0.0262
  C  C108  1  0.829390  0.103040  0.094100  1.0  0.0359
  C  C109  1  0.626950  0.919290  0.722700  1.0  -0.0888
  C  C110  1  0.031540  0.898730  0.966880  1.0  -0.0545
  C  C111  1  0.168010  0.130690  0.082420  1.0  -0.0267
  C  C112  1  0.126390  0.010810  0.077980  1.0  -0.14
  C  C113  1  0.887620  0.178610  0.132260  1.0  -0.0626
  C  C114  1  0.199870  0.526270  0.326640  1.0  0.7167
  C  C115  1  0.326570  0.429060  0.245300  1.0  -0.1231
  C  C116  1  0.866870  0.856280  0.723760  1.0  0.0158
  C  C117  1  0.767610  0.873910  0.646120  1.0  -0.0223
  C  C118  1  0.081690  0.934520  0.040760  1.0  -0.0198
  C  C119  1  0.026060  0.939930  0.930620  1.0  -0.0247
  C  C120  1  0.091760  0.894030  0.079640  1.0  -0.0093
  C  C121  1  0.938790  0.239490  0.164940  1.0  -0.0565
  C  C122  1  0.004270  0.311970  0.205200  1.0  0.0237
  C  C123  1  0.205330  0.196030  0.118560  1.0  0.0014
  C  C124  1  0.796460  0.773360  0.595940  1.0  -0.0469
  C  C125  1  0.292090  0.309090  0.235520  1.0  -0.122
  C  C126  1  0.823820  0.896320  0.713820  1.0  -0.1189
  C  C127  1  0.330620  0.385320  0.275960  1.0  -0.0809
  C  C128  1  0.078210  0.319110  0.237960  1.0  -0.1154
  C  C129  1  0.131120  0.450740  0.284000  1.0  -0.1032
  C  C130  1  0.925380  0.881280  0.794500  1.0  -0.0385
  C  C131  1  0.247860  0.274860  0.161940  1.0  0.044
  C  C132  1  0.215740  0.803840  0.231300  1.0  -0.0447
  C  C133  1  0.162560  0.768360  0.246040  1.0  -0.1285
  C  C134  1  0.852620  0.795890  0.664280  1.0  -0.1053
  C  C135  1  0.125410  0.832010  0.159800  1.0  0.0329
  C  C136  1  0.141180  0.389080  0.278600  1.0  -0.0253
  C  C137  1  0.056880  0.442580  0.248940  1.0  -0.0386
  C  C138  1  0.283310  0.395410  0.171960  1.0  -0.0826
  C  C139  1  0.197870  0.836570  0.188320  1.0  -0.1104
  C  C140  1  0.993740  0.374340  0.210440  1.0  -0.1279
  C  C141  1  0.106330  0.866130  0.115360  1.0  -0.021
  C  C142  1  0.089190  0.763890  0.218580  1.0  -0.0765
  C  C143  1  0.069890  0.795790  0.175780  1.0  -0.1102
  C  C144  1  0.247850  0.320050  0.130780  1.0  -0.1352
  C  C145  1  0.691490  0.787290  0.513440  1.0  0.7296
  C  C146  1  0.182670  0.732270  0.292740  1.0  0.685
  C  C147  1  0.425580  0.776940  0.288880  1.0  0.6952
  C  C148  1  0.558590  0.765820  0.647760  1.0  -0.0446
  C  C149  1  0.728620  0.952690  0.018080  1.0  -0.0478
  C  C150  1  0.396450  0.952550  0.968660  1.0  -0.0986
  C  C151  1  0.383870  0.950880  0.856120  1.0  -0.0162
  C  C152  1  0.332990  0.774940  0.586240  1.0  -0.1313
  C  C153  1  0.420680  0.990670  0.042540  1.0  0.0248
  C  C154  1  0.764710  0.991060  0.094100  1.0  0.0319
  C  C155  1  0.595750  0.803410  0.722700  1.0  -0.0843
  C  C156  1  0.435340  0.068150  0.966880  1.0  -0.0559
  C  C157  1  0.414410  0.951730  0.082420  1.0  -0.0278
  C  C158  1  0.451590  0.067170  0.077980  1.0  -0.139
  C  C159  1  0.744640  0.953650  0.132260  1.0  -0.0595
  C  C160  1  0.626770  0.800370  0.326640  1.0  0.719
  C  C161  1  0.418730  0.816240  0.245300  1.0  -0.1217
  C  C162  1  0.356890  0.867480  0.723760  1.0  0.0163
  C  C163  1  0.378510  0.772210  0.646120  1.0  -0.0254
  C  C164  1  0.459070  0.106240  0.040760  1.0  -0.0143
  C  C165  1  0.404560  0.990690  0.930620  1.0  -0.0256
  C  C166  1  0.487880  0.185610  0.079640  1.0  -0.0115
  C  C167  1  0.726150  0.925450  0.164940  1.0  -0.0535
  C  C168  1  0.700930  0.893230  0.205200  1.0  0.0233
  C  C169  1  0.413230  0.922530  0.118560  1.0  0.0027
  C  C170  1  0.299480  0.822580  0.595940  1.0  -0.0467
  C  C171  1  0.443430  0.926430  0.235520  1.0  -0.1257
  C  C172  1  0.390000  0.817500  0.713820  1.0  -0.1178
  C  C173  1  0.445340  0.890640  0.275960  1.0  -0.0784
  C  C174  1  0.659750  0.918850  0.237960  1.0  -0.1146
  C  C175  1  0.652880  0.833260  0.284000  1.0  -0.1024
  C  C176  1  0.369120  0.913220  0.794500  1.0  -0.0407
  C  C177  1  0.414080  0.887080  0.161940  1.0  0.0434
  C  C178  1  0.515560  0.427460  0.231300  1.0  -0.047
  C  C179  1  0.583480  0.477680  0.246040  1.0  -0.1259
  C  C180  1  0.311660  0.868390  0.664280  1.0  -0.108
  C  C181  1  0.534390  0.327790  0.159800  1.0  0.0316
  C  C182  1  0.637420  0.889520  0.278600  1.0  -0.0303
  C  C183  1  0.692060  0.806360  0.248940  1.0  -0.0394
  C  C184  1  0.388650  0.776550  0.171960  1.0  -0.0832
  C  C185  1  0.490450  0.351750  0.188320  1.0  -0.108
  C  C186  1  0.716700  0.836100  0.210440  1.0  -0.1305
  C  C187  1  0.509030  0.249230  0.115360  1.0  -0.0199
  C  C188  1  0.629390  0.454690  0.218580  1.0  -0.0764
  C  C189  1  0.605890  0.379990  0.175780  1.0  -0.1116
  C  C190  1  0.382930  0.810730  0.130780  1.0  -0.1352
  C  C191  1  0.321950  0.726150  0.513440  1.0  0.7307
  C  C192  1  0.610070  0.560470  0.292740  1.0  0.6841
  C  C193  1  0.669250  0.919250  0.838500  1.0  0.1185
  C  C194  1  0.740330  0.990330  0.980660  1.0  0.0037
  C  C195  1  0.555040  0.805040  0.610080  1.0  -0.1073
  C  C196  1  0.701390  0.951390  0.902780  1.0  0.1
  C  C197  1  0.815440  0.065440  0.130880  1.0  -0.0327
  C  C198  1  0.630300  0.880300  0.760600  1.0  -0.0677
  C  C199  1  0.514620  0.764620  0.529240  1.0  0.6723
  C  C200  1  0.636700  0.488060  0.711120  1.0  0.6934
  C  C201  1  0.410830  0.118060  0.352240  1.0  -0.0424
  C  C202  1  0.210540  0.934610  0.981920  1.0  -0.0477
  C  C203  1  0.927790  0.983890  0.031340  1.0  -0.0961
  C  C204  1  0.027750  0.094760  0.143880  1.0  -0.0164
  C  C205  1  0.246750  0.188700  0.413760  1.0  -0.1297
  C  C206  1  0.878140  0.948130  0.957460  1.0  0.0253
  C  C207  1  0.170610  0.896960  0.905900  1.0  0.0332
  C  C208  1  0.373050  0.080710  0.277300  1.0  -0.0879
  C  C209  1  0.968460  0.101270  0.033120  1.0  -0.0549
  C  C210  1  0.831990  0.869310  0.917580  1.0  -0.0249
  C  C211  1  0.873610  0.989190  0.922020  1.0  -0.1402
  C  C212  1  0.112380  0.821390  0.867740  1.0  -0.0609
  C  C213  1  0.800130  0.473730  0.673360  1.0  0.7167
  C  C214  1  0.673430  0.570940  0.754700  1.0  -0.1228
  C  C215  1  0.133130  0.143720  0.276240  1.0  0.0178
  C  C216  1  0.232390  0.126090  0.353880  1.0  -0.0219
  C  C217  1  0.918310  0.065480  0.959240  1.0  -0.0167
  C  C218  1  0.973940  0.060070  0.069380  1.0  -0.0241
  C  C219  1  0.908240  0.105970  0.920360  1.0  -0.0129
  C  C220  1  0.061210  0.760510  0.835060  1.0  -0.0544
  C  C221  1  0.995730  0.688030  0.794800  1.0  0.0222
  C  C222  1  0.794670  0.803970  0.881440  1.0  0.0016
  C  C223  1  0.203540  0.226640  0.404060  1.0  -0.0435
  C  C224  1  0.707910  0.690910  0.764480  1.0  -0.123
  C  C225  1  0.176180  0.103680  0.286180  1.0  -0.118
  C  C226  1  0.669380  0.614680  0.724040  1.0  -0.0787
  C  C227  1  0.921790  0.680890  0.762040  1.0  -0.1164
  C  C228  1  0.868880  0.549260  0.716000  1.0  -0.102
  C  C229  1  0.074620  0.118720  0.205500  1.0  -0.0413
  C  C230  1  0.752140  0.725140  0.838060  1.0  0.0459
  C  C231  1  0.784260  0.196160  0.768700  1.0  -0.0462
  C  C232  1  0.837440  0.231640  0.753960  1.0  -0.1282
  C  C233  1  0.147380  0.204110  0.335720  1.0  -0.1078
  C  C234  1  0.874590  0.167990  0.840200  1.0  0.0321
  C  C235  1  0.858820  0.610920  0.721400  1.0  -0.0273
  C  C236  1  0.943120  0.557420  0.751060  1.0  -0.0392
  C  C237  1  0.716690  0.604590  0.828040  1.0  -0.0803
  C  C238  1  0.802130  0.163430  0.811680  1.0  -0.1095
  C  C239  1  0.006260  0.625660  0.789560  1.0  -0.1284
  C  C240  1  0.893670  0.133870  0.884640  1.0  -0.0214
  C  C241  1  0.910810  0.236110  0.781420  1.0  -0.0766
  C  C242  1  0.930110  0.204210  0.824220  1.0  -0.1076
  C  C243  1  0.752150  0.679950  0.869220  1.0  -0.1351
  C  C244  1  0.308510  0.212710  0.486560  1.0  0.7284
  C  C245  1  0.817330  0.267730  0.707260  1.0  0.6837
  C  C246  1  0.574420  0.223060  0.711120  1.0  0.6957
  C  C247  1  0.441410  0.234180  0.352240  1.0  -0.0431
  C  C248  1  0.271380  0.047310  0.981920  1.0  -0.0479
  C  C249  1  0.603550  0.047450  0.031340  1.0  -0.0977
  C  C250  1  0.616130  0.049120  0.143880  1.0  -0.0134
  C  C251  1  0.667010  0.225060  0.413760  1.0  -0.1283
  C  C252  1  0.579320  0.009330  0.957460  1.0  0.0258
  C  C253  1  0.235290  0.008940  0.905900  1.0  0.0332
  C  C254  1  0.404250  0.196590  0.277300  1.0  -0.084
  C  C255  1  0.564660  0.931850  0.033120  1.0  -0.0564
  C  C256  1  0.585590  0.048270  0.917580  1.0  -0.0283
  C  C257  1  0.548410  0.932830  0.922020  1.0  -0.1386
  C  C258  1  0.255360  0.046350  0.867740  1.0  -0.064
  C  C259  1  0.373230  0.199630  0.673360  1.0  0.7182
  C  C260  1  0.581270  0.183760  0.754700  1.0  -0.1217
  C  C261  1  0.643110  0.132520  0.276240  1.0  0.0177
  C  C262  1  0.621490  0.227790  0.353880  1.0  -0.0253
  C  C263  1  0.540930  0.893760  0.959240  1.0  -0.0144
  C  C264  1  0.595440  0.009310  0.069380  1.0  -0.0253
  C  C265  1  0.512120  0.814390  0.920360  1.0  -0.0082
  C  C266  1  0.273850  0.074550  0.835060  1.0  -0.056
  C  C267  1  0.299070  0.106770  0.794800  1.0  0.0236
  C  C268  1  0.586770  0.077470  0.881440  1.0  0.0014
  C  C269  1  0.700520  0.177420  0.404060  1.0  -0.0465
  C  C270  1  0.556570  0.073570  0.764480  1.0  -0.1261
  C  C271  1  0.610000  0.182500  0.286180  1.0  -0.1201
  C  C272  1  0.554660  0.109360  0.724040  1.0  -0.0791
  C  C273  1  0.340250  0.081150  0.762040  1.0  -0.1138
  C  C274  1  0.347120  0.166740  0.716000  1.0  -0.1016
  C  C275  1  0.630880  0.086780  0.205500  1.0  -0.0392
  C  C276  1  0.585920  0.112920  0.838060  1.0  0.0455
  C  C277  1  0.484440  0.572540  0.768700  1.0  -0.0461
  C  C278  1  0.416520  0.522320  0.753960  1.0  -0.1264
  C  C279  1  0.688340  0.131610  0.335720  1.0  -0.1069
  C  C280  1  0.465610  0.672210  0.840200  1.0  0.0326
  C  C281  1  0.362580  0.110480  0.721400  1.0  -0.0296
  C  C282  1  0.307940  0.193640  0.751060  1.0  -0.0388
  C  C283  1  0.611350  0.223450  0.828040  1.0  -0.0806
  C  C284  1  0.509550  0.648250  0.811680  1.0  -0.1089
  C  C285  1  0.283300  0.163900  0.789560  1.0  -0.1332
  C  C286  1  0.490970  0.750770  0.884640  1.0  -0.0204
  C  C287  1  0.370610  0.545310  0.781420  1.0  -0.0769
  C  C288  1  0.394110  0.620010  0.824220  1.0  -0.1136
  C  C289  1  0.617070  0.189270  0.869220  1.0  -0.1367
  C  C290  1  0.678050  0.273850  0.486560  1.0  0.7318
  C  C291  1  0.389930  0.439530  0.707260  1.0  0.6844
  C  C292  1  0.330750  0.080750  0.161500  1.0  0.1185
  C  C293  1  0.259670  0.009670  0.019340  1.0  0.005
  C  C294  1  0.444960  0.194960  0.389920  1.0  -0.1066
  C  C295  1  0.298610  0.048610  0.097220  1.0  0.101
  C  C296  1  0.184560  0.934560  0.869120  1.0  -0.0307
  C  C297  1  0.369700  0.119700  0.239400  1.0  -0.0686
  C  C298  1  0.485380  0.235380  0.470760  1.0  0.6715
  O  O299  1  0.497660  0.696380  0.497360  1.0  -0.6132
  O  O300  1  0.364720  0.677940  0.378920  1.0  -0.7804
  O  O301  1  0.655700  0.825070  0.508780  1.0  -0.6303
  O  O302  1  0.262390  0.532970  0.366960  1.0  -0.6207
  O  O303  1  0.354900  0.546020  0.253000  1.0  -0.6093
  O  O304  1  0.680800  0.729500  0.461220  1.0  -0.5954
  O  O305  1  0.398790  0.542150  0.355760  1.0  -0.6293
  O  O306  1  0.247930  0.735970  0.313020  1.0  -0.5656
  O  O307  1  0.186230  0.576720  0.316700  1.0  -0.5762
  O  O308  1  0.132950  0.701650  0.306800  1.0  -0.4508
  O  O309  1  0.499700  0.800980  0.497360  1.0  -0.6132
  O  O310  1  0.514200  0.700980  0.378920  1.0  -0.779
  O  O311  1  0.353080  0.683710  0.508780  1.0  -0.6311
  O  O312  1  0.604570  0.833990  0.366960  1.0  -0.624
  O  O313  1  0.398100  0.706980  0.253000  1.0  -0.6072
  O  O314  1  0.280420  0.731720  0.461220  1.0  -0.5936
  O  O315  1  0.456970  0.813610  0.355760  1.0  -0.6296
  O  O316  1  0.565090  0.577050  0.313020  1.0  -0.5636
  O  O317  1  0.630470  0.739980  0.316700  1.0  -0.5773
  O  O318  1  0.673850  0.605150  0.306800  1.0  -0.4499
  O  O319  1  0.502340  0.303620  0.502640  1.0  -0.6125
  O  O320  1  0.635280  0.322060  0.621080  1.0  -0.7803
  O  O321  1  0.344300  0.174930  0.491220  1.0  -0.6312
  O  O322  1  0.737610  0.467030  0.633040  1.0  -0.6202
  O  O323  1  0.645100  0.453980  0.747000  1.0  -0.6098
  O  O324  1  0.319200  0.270500  0.538780  1.0  -0.5951
  O  O325  1  0.601210  0.457850  0.644240  1.0  -0.6312
  O  O326  1  0.752070  0.264030  0.686980  1.0  -0.5657
  O  O327  1  0.813770  0.423280  0.683300  1.0  -0.5787
  O  O328  1  0.867050  0.298350  0.693200  1.0  -0.4496
  O  O329  1  0.500300  0.199020  0.502640  1.0  -0.6132
  O  O330  1  0.485800  0.299020  0.621080  1.0  -0.7795
  O  O331  1  0.646920  0.316290  0.491220  1.0  -0.6299
  O  O332  1  0.395430  0.166010  0.633040  1.0  -0.6239
  O  O333  1  0.601900  0.293020  0.747000  1.0  -0.607
  O  O334  1  0.719580  0.268280  0.538780  1.0  -0.5932
  O  O335  1  0.543030  0.186390  0.644240  1.0  -0.6311
  O  O336  1  0.434910  0.422950  0.686980  1.0  -0.5644
  O  O337  1  0.369530  0.260020  0.683300  1.0  -0.5761
  O  O338  1  0.326150  0.394850  0.693200  1.0  -0.448
