# generated using pymatgen
data_Zn3H22C28(NO3)4
_symmetry_space_group_name_H-M   'P 1'
_cell_length_a   19.34550000
_cell_length_b   19.34550000
_cell_length_c   19.34550000
_cell_angle_alpha   107.05300000
_cell_angle_beta   110.69400000
_cell_angle_gamma   110.69400000
_symmetry_Int_Tables_number   1
_chemical_formula_structural   Zn3H22C28(NO3)4
_chemical_formula_sum   'Zn12 H88 C112 N16 O48'
_cell_volume   5565.92192333
_cell_formula_units_Z   4
loop_
 _symmetry_equiv_pos_site_id
 _symmetry_equiv_pos_as_xyz
  1  'x, y, z'
loop_
 _atom_site_type_symbol
 _atom_site_label
 _atom_site_symmetry_multiplicity
 _atom_site_fract_x
 _atom_site_fract_y
 _atom_site_fract_z
 _atom_site_occupancy
 _atom_site_charge
  Zn  Zn1  1  0.149280  0.961920  0.441640  1.0  0.9625
  Zn  Zn2  1  0.850720  0.292360  0.812640  1.0  0.9626
  Zn  Zn3  1  0.479720  0.441640  0.292360  1.0  0.9623
  Zn  Zn4  1  0.520280  0.812640  0.961920  1.0  0.9622
  Zn  Zn5  1  0.850720  0.038080  0.558360  1.0  0.9612
  Zn  Zn6  1  0.149280  0.707640  0.187360  1.0  0.9629
  Zn  Zn7  1  0.520280  0.558360  0.707640  1.0  0.9629
  Zn  Zn8  1  0.479720  0.187360  0.038080  1.0  0.9631
  Zn  Zn9  1  0.663470  0.778940  0.884530  1.0  1.0685
  Zn  Zn10  1  0.336530  0.221060  0.115470  1.0  1.0688
  Zn  Zn11  1  0.105590  0.884530  0.221060  1.0  1.0558
  Zn  Zn12  1  0.894410  0.115470  0.778940  1.0  1.0587
  H  H13  1  0.688100  0.897300  0.212800  1.0  0.119
  H  H14  1  0.845700  0.853900  0.136600  1.0  0.1209
  H  H15  1  0.924000  0.960600  0.385000  1.0  0.1204
  H  H16  1  0.307600  0.656500  0.857700  1.0  0.1302
  H  H17  1  0.181700  0.534700  0.749400  1.0  0.1168
  H  H18  1  0.311900  0.524700  0.209200  1.0  0.1199
  H  H19  1  0.154300  0.290900  0.008200  1.0  0.1207
  H  H20  1  0.076000  0.461000  0.036600  1.0  0.1192
  H  H21  1  0.692400  0.550100  0.348900  1.0  0.1302
  H  H22  1  0.818300  0.567700  0.353000  1.0  0.1187
  H  H23  1  0.315500  0.212800  0.524700  1.0  0.12
  H  H24  1  0.282700  0.136600  0.290900  1.0  0.1195
  H  H25  1  0.424400  0.385000  0.461000  1.0  0.1209
  H  H26  1  0.201200  0.857700  0.550100  1.0  0.1306
  H  H27  1  0.214700  0.749400  0.567700  1.0  0.1162
  H  H28  1  0.684500  0.209200  0.897300  1.0  0.1195
  H  H29  1  0.717300  0.008200  0.853900  1.0  0.1195
  H  H30  1  0.575600  0.036600  0.960600  1.0  0.1215
  H  H31  1  0.798800  0.348900  0.656500  1.0  0.1306
  H  H32  1  0.785300  0.353000  0.534700  1.0  0.1169
  H  H33  1  0.311900  0.102700  0.787200  1.0  0.1196
  H  H34  1  0.154300  0.146100  0.863400  1.0  0.1203
  H  H35  1  0.076000  0.039400  0.615000  1.0  0.1212
  H  H36  1  0.692400  0.343500  0.142300  1.0  0.1304
  H  H37  1  0.818300  0.465300  0.250600  1.0  0.1173
  H  H38  1  0.688100  0.475300  0.790800  1.0  0.1202
  H  H39  1  0.845700  0.709100  0.991800  1.0  0.1204
  H  H40  1  0.924000  0.539000  0.963400  1.0  0.1194
  H  H41  1  0.307600  0.449900  0.651100  1.0  0.1307
  H  H42  1  0.181700  0.432300  0.647000  1.0  0.1191
  H  H43  1  0.684500  0.787200  0.475300  1.0  0.1203
  H  H44  1  0.717300  0.863400  0.709100  1.0  0.1197
  H  H45  1  0.575600  0.615000  0.539000  1.0  0.1199
  H  H46  1  0.798800  0.142300  0.449900  1.0  0.1307
  H  H47  1  0.785300  0.250600  0.432300  1.0  0.1157
  H  H48  1  0.315500  0.790800  0.102700  1.0  0.1193
  H  H49  1  0.282700  0.991800  0.146100  1.0  0.1196
  H  H50  1  0.424400  0.963400  0.039400  1.0  0.1222
  H  H51  1  0.201200  0.651100  0.343500  1.0  0.1315
  H  H52  1  0.214700  0.647000  0.465300  1.0  0.1176
  H  H53  1  0.538400  0.346800  0.971400  1.0  0.1254
  H  H54  1  0.472200  0.376300  0.968900  1.0  0.1254
  H  H55  1  0.568200  0.442500  0.004700  1.0  0.1178
  H  H56  1  0.407100  0.280200  0.757300  1.0  0.1285
  H  H57  1  0.377400  0.281000  0.823000  1.0  0.1309
  H  H58  1  0.440000  0.247800  0.820200  1.0  0.1245
  H  H59  1  0.461600  0.433000  0.808400  1.0  0.1258
  H  H60  1  0.527800  0.496700  0.904100  1.0  0.1283
  H  H61  1  0.431800  0.436500  0.874300  1.0  0.1198
  H  H62  1  0.592900  0.350200  0.873100  1.0  0.1283
  H  H63  1  0.622600  0.445600  0.903600  1.0  0.1312
  H  H64  1  0.560000  0.380200  0.807800  1.0  0.1284
  H  H65  1  0.624600  0.971400  0.433000  1.0  0.1258
  H  H66  1  0.592600  0.968900  0.496700  1.0  0.1267
  H  H67  1  0.562200  0.004700  0.436500  1.0  0.1195
  H  H68  1  0.477100  0.757300  0.350200  1.0  0.1268
  H  H69  1  0.542000  0.823000  0.445600  1.0  0.1317
  H  H70  1  0.572400  0.820200  0.380200  1.0  0.1278
  H  H71  1  0.375400  0.808400  0.346800  1.0  0.1269
  H  H72  1  0.407400  0.904100  0.376300  1.0  0.1294
  H  H73  1  0.437800  0.874300  0.442500  1.0  0.1166
  H  H74  1  0.522900  0.873100  0.280200  1.0  0.1263
  H  H75  1  0.458000  0.903600  0.281000  1.0  0.1289
  H  H76  1  0.427600  0.807800  0.247800  1.0  0.1257
  H  H77  1  0.461600  0.653200  0.028600  1.0  0.1247
  H  H78  1  0.527800  0.623700  0.031100  1.0  0.1272
  H  H79  1  0.431800  0.557500  0.995300  1.0  0.1165
  H  H80  1  0.592900  0.719800  0.242700  1.0  0.1271
  H  H81  1  0.622600  0.719000  0.177000  1.0  0.1334
  H  H82  1  0.560000  0.752200  0.179800  1.0  0.1253
  H  H83  1  0.538400  0.567000  0.191600  1.0  0.1263
  H  H84  1  0.472200  0.503300  0.095900  1.0  0.1264
  H  H85  1  0.568200  0.563500  0.125700  1.0  0.1199
  H  H86  1  0.407100  0.649800  0.126900  1.0  0.1291
  H  H87  1  0.377400  0.554400  0.096400  1.0  0.1299
  H  H88  1  0.440000  0.619800  0.192200  1.0  0.1274
  H  H89  1  0.375400  0.028600  0.567000  1.0  0.1254
  H  H90  1  0.407400  0.031100  0.503300  1.0  0.1261
  H  H91  1  0.437800  0.995300  0.563500  1.0  0.1183
  H  H92  1  0.522900  0.242700  0.649800  1.0  0.1285
  H  H93  1  0.458000  0.177000  0.554400  1.0  0.1312
  H  H94  1  0.427600  0.179800  0.619800  1.0  0.1263
  H  H95  1  0.624600  0.191600  0.653200  1.0  0.1296
  H  H96  1  0.592600  0.095900  0.623700  1.0  0.1275
  H  H97  1  0.562200  0.125700  0.557500  1.0  0.1166
  H  H98  1  0.477100  0.126900  0.719800  1.0  0.1257
  H  H99  1  0.542000  0.096400  0.719000  1.0  0.1292
  H  H100  1  0.572400  0.192200  0.752200  1.0  0.1258
  C  C101  1  0.785500  0.967020  0.379720  1.0  0.6751
  C  C102  1  0.685500  0.833400  0.068900  1.0  0.7186
  C  C103  1  0.804200  0.935050  0.310450  1.0  -0.1113
  C  C104  1  0.740400  0.900070  0.225470  1.0  -0.0226
  C  C105  1  0.755900  0.869030  0.159330  1.0  -0.1199
  C  C106  1  0.900200  0.907650  0.265050  1.0  -0.1124
  C  C107  1  0.835240  0.873540  0.179620  1.0  0.0046
  C  C108  1  0.882500  0.938060  0.329160  1.0  0.0342
  C  C109  1  0.384800  0.633500  0.812500  1.0  0.0044
  C  C110  1  0.987100  0.911360  0.290060  1.0  0.683
  C  C111  1  0.307300  0.618200  0.815100  1.0  -0.1277
  C  C112  1  0.233400  0.544500  0.751900  1.0  -0.0977
  C  C113  1  0.214500  0.594220  0.181520  1.0  0.6727
  C  C114  1  0.314500  0.383400  0.147900  1.0  0.7155
  C  C115  1  0.195800  0.506250  0.130850  1.0  -0.1088
  C  C116  1  0.259600  0.485070  0.159670  1.0  -0.0197
  C  C117  1  0.244100  0.403430  0.113130  1.0  -0.1192
  C  C118  1  0.099800  0.364850  0.007450  1.0  -0.1137
  C  C119  1  0.164760  0.344380  0.038300  1.0  0.0079
  C  C120  1  0.117500  0.446660  0.055560  1.0  0.0286
  C  C121  1  0.615200  0.427700  0.248700  1.0  -0.0003
  C  C122  1  0.012900  0.302960  0.924260  1.0  0.6834
  C  C123  1  0.692700  0.507800  0.310900  1.0  -0.124
  C  C124  1  0.766600  0.518500  0.311100  1.0  -0.0995
  C  C125  1  0.412700  0.379720  0.594220  1.0  0.672
  C  C126  1  0.235500  0.068900  0.383400  1.0  0.7154
  C  C127  1  0.375400  0.310450  0.506250  1.0  -0.1098
  C  C128  1  0.325400  0.225470  0.485070  1.0  -0.0146
  C  C129  1  0.290300  0.159330  0.403430  1.0  -0.1183
  C  C130  1  0.357400  0.265050  0.364850  1.0  -0.1126
  C  C131  1  0.306080  0.179620  0.344380  1.0  0.0117
  C  C132  1  0.391100  0.329160  0.446660  1.0  0.0342
  C  C133  1  0.179000  0.812500  0.427700  1.0  0.0036
  C  C134  1  0.378700  0.290060  0.302960  1.0  0.6827
  C  C135  1  0.196900  0.815100  0.507800  1.0  -0.1279
  C  C136  1  0.207400  0.751900  0.518500  1.0  -0.0944
  C  C137  1  0.587300  0.181520  0.967020  1.0  0.6709
  C  C138  1  0.764500  0.147900  0.833400  1.0  0.7157
  C  C139  1  0.624600  0.130850  0.935050  1.0  -0.1102
  C  C140  1  0.674600  0.159670  0.900070  1.0  -0.0194
  C  C141  1  0.709700  0.113130  0.869030  1.0  -0.1188
  C  C142  1  0.642600  0.007450  0.907650  1.0  -0.1141
  C  C143  1  0.693920  0.038300  0.873540  1.0  0.0102
  C  C144  1  0.608900  0.055560  0.938060  1.0  0.0324
  C  C145  1  0.821000  0.248700  0.633500  1.0  0.0031
  C  C146  1  0.621300  0.924260  0.911360  1.0  0.6831
  C  C147  1  0.803100  0.310900  0.618200  1.0  -0.1254
  C  C148  1  0.792600  0.311100  0.544500  1.0  -0.1016
  C  C149  1  0.214500  0.032980  0.620280  1.0  0.6752
  C  C150  1  0.314500  0.166600  0.931100  1.0  0.7175
  C  C151  1  0.195800  0.064950  0.689550  1.0  -0.1123
  C  C152  1  0.259600  0.099930  0.774530  1.0  -0.021
  C  C153  1  0.244100  0.130970  0.840670  1.0  -0.12
  C  C154  1  0.099800  0.092350  0.734950  1.0  -0.1134
  C  C155  1  0.164760  0.126460  0.820380  1.0  0.004
  C  C156  1  0.117500  0.061940  0.670840  1.0  0.0349
  C  C157  1  0.615200  0.366500  0.187500  1.0  0.005
  C  C158  1  0.012900  0.088640  0.709940  1.0  0.6832
  C  C159  1  0.692700  0.381800  0.184900  1.0  -0.1272
  C  C160  1  0.766600  0.455500  0.248100  1.0  -0.0998
  C  C161  1  0.785500  0.405780  0.818480  1.0  0.6729
  C  C162  1  0.685500  0.616600  0.852100  1.0  0.7162
  C  C163  1  0.804200  0.493750  0.869150  1.0  -0.1099
  C  C164  1  0.740400  0.514930  0.840330  1.0  -0.0194
  C  C165  1  0.755900  0.596570  0.886870  1.0  -0.1183
  C  C166  1  0.900200  0.635150  0.992550  1.0  -0.1132
  C  C167  1  0.835240  0.655620  0.961700  1.0  0.0071
  C  C168  1  0.882500  0.553340  0.944440  1.0  0.0346
  C  C169  1  0.384800  0.572300  0.751300  1.0  -0.0007
  C  C170  1  0.987100  0.697040  0.075740  1.0  0.6835
  C  C171  1  0.307300  0.492200  0.689100  1.0  -0.124
  C  C172  1  0.233400  0.481500  0.688900  1.0  -0.1014
  C  C173  1  0.587300  0.620280  0.405780  1.0  0.6725
  C  C174  1  0.764500  0.931100  0.616600  1.0  0.7162
  C  C175  1  0.624600  0.689550  0.493750  1.0  -0.1119
  C  C176  1  0.674600  0.774530  0.514930  1.0  -0.0184
  C  C177  1  0.709700  0.840670  0.596570  1.0  -0.1173
  C  C178  1  0.642600  0.734950  0.635150  1.0  -0.1127
  C  C179  1  0.693920  0.820380  0.655620  1.0  0.0123
  C  C180  1  0.608900  0.670840  0.553340  1.0  0.0368
  C  C181  1  0.821000  0.187500  0.572300  1.0  0.003
  C  C182  1  0.621300  0.709940  0.697040  1.0  0.6841
  C  C183  1  0.803100  0.184900  0.492200  1.0  -0.1279
  C  C184  1  0.792600  0.248100  0.481500  1.0  -0.0971
  C  C185  1  0.412700  0.818480  0.032980  1.0  0.6698
  C  C186  1  0.235500  0.852100  0.166600  1.0  0.7178
  C  C187  1  0.375400  0.869150  0.064950  1.0  -0.1111
  C  C188  1  0.325400  0.840330  0.099930  1.0  -0.0149
  C  C189  1  0.290300  0.886870  0.130970  1.0  -0.1187
  C  C190  1  0.357400  0.992550  0.092350  1.0  -0.1133
  C  C191  1  0.306080  0.961700  0.126460  1.0  0.0095
  C  C192  1  0.391100  0.944440  0.061940  1.0  0.0331
  C  C193  1  0.179000  0.751300  0.366500  1.0  0.0008
  C  C194  1  0.378700  0.075740  0.088640  1.0  0.6835
  C  C195  1  0.196900  0.689100  0.381800  1.0  -0.124
  C  C196  1  0.207400  0.688900  0.455500  1.0  -0.1064
  C  C197  1  0.521800  0.386300  0.963300  1.0  -0.2016
  C  C198  1  0.424300  0.288300  0.813400  1.0  -0.2029
  C  C199  1  0.478200  0.441500  0.864500  1.0  -0.2037
  C  C200  1  0.575700  0.389100  0.864000  1.0  -0.2041
  C  C201  1  0.577000  0.963300  0.441500  1.0  -0.2017
  C  C202  1  0.525100  0.813400  0.389100  1.0  -0.2052
  C  C203  1  0.423000  0.864500  0.386300  1.0  -0.2026
  C  C204  1  0.474900  0.864000  0.288300  1.0  -0.2025
  C  C205  1  0.478200  0.613700  0.036700  1.0  -0.2027
  C  C206  1  0.575700  0.711700  0.186600  1.0  -0.2066
  C  C207  1  0.521800  0.558500  0.135500  1.0  -0.2039
  C  C208  1  0.424300  0.610900  0.136000  1.0  -0.2055
  C  C209  1  0.423000  0.036700  0.558500  1.0  -0.1991
  C  C210  1  0.474900  0.186600  0.610900  1.0  -0.2055
  C  C211  1  0.577000  0.135500  0.613700  1.0  -0.2027
  C  C212  1  0.525100  0.136000  0.711700  1.0  -0.2023
  N  N213  1  0.467300  0.701710  0.861350  1.0  -0.2289
  N  N214  1  0.532700  0.394050  0.234410  1.0  -0.2304
  N  N215  1  0.159640  0.861350  0.394050  1.0  -0.2278
  N  N216  1  0.840360  0.234410  0.701710  1.0  -0.2249
  N  N217  1  0.532700  0.298290  0.138650  1.0  -0.2296
  N  N218  1  0.467300  0.605950  0.765590  1.0  -0.2304
  N  N219  1  0.840360  0.138650  0.605950  1.0  -0.2279
  N  N220  1  0.159640  0.765590  0.298290  1.0  -0.2278
  N  N221  1  0.517100  0.684100  0.833000  1.0  -0.1197
  N  N222  1  0.482900  0.315900  0.167000  1.0  -0.1201
  N  N223  1  0.148900  0.833000  0.315900  1.0  -0.1155
  N  N224  1  0.851100  0.167000  0.684100  1.0  -0.1174
  N  N225  1  0.500000  0.375600  0.875600  1.0  -0.1232
  N  N226  1  0.500000  0.875600  0.375600  1.0  -0.1232
  N  N227  1  0.500000  0.624400  0.124400  1.0  -0.1211
  N  N228  1  0.500000  0.124400  0.624400  1.0  -0.1211
  O  O229  1  0.025500  0.917500  0.364800  1.0  -0.62
  O  O230  1  0.613500  0.826150  0.059250  1.0  -0.6034
  O  O231  1  0.700750  0.812160  0.011070  1.0  -0.6742
  O  O232  1  0.004930  0.888890  0.235780  1.0  -0.6114
  O  O233  1  0.852840  0.010140  0.454840  1.0  -0.5719
  O  O234  1  0.710500  0.949650  0.362950  1.0  -0.5509
  O  O235  1  0.974500  0.339300  0.892000  1.0  -0.6118
  O  O236  1  0.386500  0.445750  0.212650  1.0  -0.6043
  O  O237  1  0.299250  0.310320  0.111410  1.0  -0.6815
  O  O238  1  0.995070  0.230850  0.883960  1.0  -0.6092
  O  O239  1  0.147160  0.602000  0.157300  1.0  -0.5706
  O  O240  1  0.289500  0.652450  0.239150  1.0  -0.5534
  O  O241  1  0.447300  0.364800  0.339300  1.0  -0.6109
  O  O242  1  0.233100  0.059250  0.445750  1.0  -0.6057
  O  O243  1  0.198910  0.011070  0.310320  1.0  -0.6721
  O  O244  1  0.346890  0.235780  0.230850  1.0  -0.609
  O  O245  1  0.444700  0.454840  0.602000  1.0  -0.5734
  O  O246  1  0.413300  0.362950  0.652450  1.0  -0.5598
  O  O247  1  0.552700  0.892000  0.917500  1.0  -0.6192
  O  O248  1  0.766900  0.212650  0.826150  1.0  -0.6042
  O  O249  1  0.801090  0.111410  0.812160  1.0  -0.6796
  O  O250  1  0.653110  0.883960  0.888890  1.0  -0.61
  O  O251  1  0.555300  0.157300  0.010140  1.0  -0.5722
  O  O252  1  0.586700  0.239150  0.949650  1.0  -0.5554
  O  O253  1  0.974500  0.082500  0.635200  1.0  -0.6193
  O  O254  1  0.386500  0.173850  0.940750  1.0  -0.6025
  O  O255  1  0.299250  0.187840  0.988930  1.0  -0.6757
  O  O256  1  0.995070  0.111110  0.764220  1.0  -0.6094
  O  O257  1  0.147160  0.989860  0.545160  1.0  -0.573
  O  O258  1  0.289500  0.050350  0.637050  1.0  -0.5521
  O  O259  1  0.025500  0.660700  0.108000  1.0  -0.6124
  O  O260  1  0.613500  0.554250  0.787350  1.0  -0.6041
  O  O261  1  0.700750  0.689680  0.888590  1.0  -0.683
  O  O262  1  0.004930  0.769150  0.116040  1.0  -0.6094
  O  O263  1  0.852840  0.398000  0.842700  1.0  -0.5705
  O  O264  1  0.710500  0.347550  0.760850  1.0  -0.5529
  O  O265  1  0.552700  0.635200  0.660700  1.0  -0.6106
  O  O266  1  0.766900  0.940750  0.554250  1.0  -0.605
  O  O267  1  0.801090  0.988930  0.689680  1.0  -0.6734
  O  O268  1  0.653110  0.764220  0.769150  1.0  -0.6093
  O  O269  1  0.555300  0.545160  0.398000  1.0  -0.5722
  O  O270  1  0.586700  0.637050  0.347550  1.0  -0.5568
  O  O271  1  0.447300  0.108000  0.082500  1.0  -0.6189
  O  O272  1  0.233100  0.787350  0.173850  1.0  -0.6043
  O  O273  1  0.198910  0.888590  0.187840  1.0  -0.6767
  O  O274  1  0.346890  0.116040  0.111110  1.0  -0.6089
  O  O275  1  0.444700  0.842700  0.989860  1.0  -0.574
  O  O276  1  0.413300  0.760850  0.050350  1.0  -0.5555
