# generated using pymatgen
data_ZnH10(C11O2)2
_symmetry_space_group_name_H-M   'P 1'
_cell_length_a   20.26900000
_cell_length_b   20.26900000
_cell_length_c   39.64500000
_cell_angle_alpha   90.00000000
_cell_angle_beta   90.00000000
_cell_angle_gamma   90.00000000
_symmetry_Int_Tables_number   1
_chemical_formula_structural   ZnH10(C11O2)2
_chemical_formula_sum   'Zn12 H120 C264 O48'
_cell_volume   16287.44895184
_cell_formula_units_Z   12
loop_
 _symmetry_equiv_pos_site_id
 _symmetry_equiv_pos_as_xyz
  1  'x, y, z'
loop_
 _atom_site_type_symbol
 _atom_site_label
 _atom_site_symmetry_multiplicity
 _atom_site_fract_x
 _atom_site_fract_y
 _atom_site_fract_z
 _atom_site_occupancy
 _atom_site_charge
  Zn  Zn1  1  0.831920  0.145430  0.700880  1.0  1.0611
  Zn  Zn2  1  0.168080  0.854570  0.200880  1.0  1.0646
  Zn  Zn3  1  0.854570  0.831920  0.950880  1.0  1.0616
  Zn  Zn4  1  0.145430  0.168080  0.450880  1.0  1.067
  Zn  Zn5  1  0.168080  0.145430  0.299120  1.0  1.0646
  Zn  Zn6  1  0.831920  0.854570  0.799120  1.0  1.0658
  Zn  Zn7  1  0.145430  0.831920  0.049120  1.0  1.0668
  Zn  Zn8  1  0.854570  0.168080  0.549120  1.0  1.0672
  Zn  Zn9  1  0.831890  0.000000  0.750000  1.0  1.1016
  Zn  Zn10  1  0.168110  0.000000  0.250000  1.0  1.0948
  Zn  Zn11  1  0.000000  0.831890  0.000000  1.0  1.1034
  Zn  Zn12  1  0.000000  0.168110  0.500000  1.0  1.1036
  H  H13  1  0.838100  0.886600  0.661400  1.0  0.0988
  H  H14  1  0.857800  0.823700  0.613300  1.0  0.1232
  H  H15  1  0.897600  0.991800  0.561800  1.0  0.1
  H  H16  1  0.878300  0.053900  0.610700  1.0  0.1138
  H  H17  1  0.895700  0.703700  0.523700  1.0  0.1012
  H  H18  1  0.934100  0.680500  0.423700  1.0  0.1127
  H  H19  1  0.924200  0.864600  0.464800  1.0  0.1106
  H  H20  1  0.840200  0.493200  0.531500  1.0  0.1206
  H  H21  1  0.834400  0.383100  0.543900  1.0  0.0972
  H  H22  1  0.948400  0.340200  0.464000  1.0  0.1078
  H  H23  1  0.960800  0.448600  0.452900  1.0  0.1106
  H  H24  1  0.017500  0.740800  0.337400  1.0  0.1189
  H  H25  1  0.064600  0.760400  0.285700  1.0  0.098
  H  H26  1  0.015200  0.951600  0.292900  1.0  0.101
  H  H27  1  0.967300  0.932400  0.344700  1.0  0.1037
  H  H28  1  0.161900  0.113400  0.161400  1.0  0.0983
  H  H29  1  0.142200  0.176300  0.113300  1.0  0.1227
  H  H30  1  0.102400  0.008200  0.061800  1.0  0.1008
  H  H31  1  0.121700  0.946100  0.110700  1.0  0.114
  H  H32  1  0.104300  0.296300  0.023700  1.0  0.0998
  H  H33  1  0.065900  0.319500  0.923700  1.0  0.1131
  H  H34  1  0.075800  0.135400  0.964800  1.0  0.1115
  H  H35  1  0.159800  0.506800  0.031500  1.0  0.1206
  H  H36  1  0.165600  0.616900  0.043900  1.0  0.0981
  H  H37  1  0.051600  0.659800  0.964000  1.0  0.1083
  H  H38  1  0.039200  0.551400  0.952900  1.0  0.1102
  H  H39  1  0.982500  0.259200  0.837400  1.0  0.1192
  H  H40  1  0.935400  0.239600  0.785700  1.0  0.0994
  H  H41  1  0.984800  0.048400  0.792900  1.0  0.1014
  H  H42  1  0.032700  0.067600  0.844700  1.0  0.1037
  H  H43  1  0.113400  0.838100  0.911400  1.0  0.0976
  H  H44  1  0.176300  0.857800  0.863300  1.0  0.1235
  H  H45  1  0.008200  0.897600  0.811800  1.0  0.0989
  H  H46  1  0.946100  0.878300  0.860700  1.0  0.1163
  H  H47  1  0.296300  0.895700  0.773700  1.0  0.1001
  H  H48  1  0.319500  0.934100  0.673700  1.0  0.1132
  H  H49  1  0.135400  0.924200  0.714800  1.0  0.1105
  H  H50  1  0.506800  0.840200  0.781500  1.0  0.1208
  H  H51  1  0.616900  0.834400  0.793900  1.0  0.0977
  H  H52  1  0.659800  0.948400  0.714000  1.0  0.1081
  H  H53  1  0.551400  0.960800  0.702900  1.0  0.111
  H  H54  1  0.259200  0.017500  0.587400  1.0  0.1187
  H  H55  1  0.239600  0.064600  0.535700  1.0  0.0976
  H  H56  1  0.048400  0.015200  0.542900  1.0  0.101
  H  H57  1  0.067600  0.967300  0.594700  1.0  0.1036
  H  H58  1  0.886600  0.161900  0.411400  1.0  0.0981
  H  H59  1  0.823700  0.142200  0.363300  1.0  0.1249
  H  H60  1  0.991800  0.102400  0.311800  1.0  0.0988
  H  H61  1  0.053900  0.121700  0.360700  1.0  0.1161
  H  H62  1  0.703700  0.104300  0.273700  1.0  0.1006
  H  H63  1  0.680500  0.065900  0.173700  1.0  0.1125
  H  H64  1  0.864600  0.075800  0.214800  1.0  0.1089
  H  H65  1  0.493200  0.159800  0.281500  1.0  0.1207
  H  H66  1  0.383100  0.165600  0.293900  1.0  0.0976
  H  H67  1  0.340200  0.051600  0.214000  1.0  0.1081
  H  H68  1  0.448600  0.039200  0.202900  1.0  0.1104
  H  H69  1  0.740800  0.982500  0.087400  1.0  0.1194
  H  H70  1  0.760400  0.935400  0.035700  1.0  0.0982
  H  H71  1  0.951600  0.984800  0.042900  1.0  0.1002
  H  H72  1  0.932400  0.032700  0.094700  1.0  0.1033
  H  H73  1  0.161900  0.886600  0.338600  1.0  0.0984
  H  H74  1  0.142200  0.823700  0.386700  1.0  0.1229
  H  H75  1  0.102400  0.991800  0.438200  1.0  0.1002
  H  H76  1  0.121700  0.053900  0.389300  1.0  0.1134
  H  H77  1  0.104300  0.703700  0.476300  1.0  0.1004
  H  H78  1  0.065900  0.680500  0.576300  1.0  0.114
  H  H79  1  0.075800  0.864600  0.535200  1.0  0.1106
  H  H80  1  0.159800  0.493200  0.468500  1.0  0.1213
  H  H81  1  0.165600  0.383100  0.456100  1.0  0.0973
  H  H82  1  0.051600  0.340200  0.536000  1.0  0.1088
  H  H83  1  0.039200  0.448600  0.547100  1.0  0.1105
  H  H84  1  0.982500  0.740800  0.662600  1.0  0.1187
  H  H85  1  0.935400  0.760400  0.714300  1.0  0.0984
  H  H86  1  0.984800  0.951600  0.707100  1.0  0.1009
  H  H87  1  0.032700  0.932400  0.655300  1.0  0.1038
  H  H88  1  0.838100  0.113400  0.838600  1.0  0.0988
  H  H89  1  0.857800  0.176300  0.886700  1.0  0.1235
  H  H90  1  0.897600  0.008200  0.938200  1.0  0.1004
  H  H91  1  0.878300  0.946100  0.889300  1.0  0.1139
  H  H92  1  0.895700  0.296300  0.976300  1.0  0.1009
  H  H93  1  0.934100  0.319500  0.076300  1.0  0.1145
  H  H94  1  0.924200  0.135400  0.035200  1.0  0.111
  H  H95  1  0.840200  0.506800  0.968500  1.0  0.12
  H  H96  1  0.834400  0.616900  0.956100  1.0  0.0982
  H  H97  1  0.948400  0.659800  0.036000  1.0  0.1087
  H  H98  1  0.960800  0.551400  0.047100  1.0  0.1112
  H  H99  1  0.017500  0.259200  0.162600  1.0  0.1202
  H  H100  1  0.064600  0.239600  0.214300  1.0  0.0988
  H  H101  1  0.015200  0.048400  0.207100  1.0  0.1018
  H  H102  1  0.967300  0.067600  0.155300  1.0  0.104
  H  H103  1  0.886600  0.838100  0.088600  1.0  0.0982
  H  H104  1  0.823700  0.857800  0.136700  1.0  0.1252
  H  H105  1  0.991800  0.897600  0.188200  1.0  0.0993
  H  H106  1  0.053900  0.878300  0.139300  1.0  0.1156
  H  H107  1  0.703700  0.895700  0.226300  1.0  0.1003
  H  H108  1  0.680500  0.934100  0.326300  1.0  0.1138
  H  H109  1  0.864600  0.924200  0.285200  1.0  0.1095
  H  H110  1  0.493200  0.840200  0.218500  1.0  0.1207
  H  H111  1  0.383100  0.834400  0.206100  1.0  0.0974
  H  H112  1  0.340200  0.948400  0.286000  1.0  0.1089
  H  H113  1  0.448600  0.960800  0.297100  1.0  0.1111
  H  H114  1  0.740800  0.017500  0.412600  1.0  0.1194
  H  H115  1  0.760400  0.064600  0.464300  1.0  0.0975
  H  H116  1  0.951600  0.015200  0.457100  1.0  0.101
  H  H117  1  0.932400  0.967300  0.405300  1.0  0.1034
  H  H118  1  0.113400  0.161900  0.588600  1.0  0.0984
  H  H119  1  0.176300  0.142200  0.636700  1.0  0.1236
  H  H120  1  0.008200  0.102400  0.688200  1.0  0.0987
  H  H121  1  0.946100  0.121700  0.639300  1.0  0.1161
  H  H122  1  0.296300  0.104300  0.726300  1.0  0.1006
  H  H123  1  0.319500  0.065900  0.826300  1.0  0.1138
  H  H124  1  0.135400  0.075800  0.785200  1.0  0.1104
  H  H125  1  0.506800  0.159800  0.718500  1.0  0.121
  H  H126  1  0.616900  0.165600  0.706100  1.0  0.098
  H  H127  1  0.659800  0.051600  0.786000  1.0  0.1092
  H  H128  1  0.551400  0.039200  0.797100  1.0  0.1113
  H  H129  1  0.259200  0.982500  0.912600  1.0  0.1188
  H  H130  1  0.239600  0.935400  0.964300  1.0  0.0983
  H  H131  1  0.048400  0.984800  0.957100  1.0  0.1012
  H  H132  1  0.067600  0.032700  0.905300  1.0  0.1041
  C  C133  1  0.843880  0.014440  0.672180  1.0  0.6918
  C  C134  1  0.855800  0.974210  0.640400  1.0  -0.1283
  C  C135  1  0.850190  0.907600  0.641180  1.0  -0.024
  C  C136  1  0.862050  0.869850  0.612650  1.0  -0.12
  C  C137  1  0.880770  0.902600  0.582490  1.0  -0.0303
  C  C138  1  0.885930  0.970400  0.581920  1.0  -0.0999
  C  C139  1  0.874090  0.007740  0.610930  1.0  -0.061
  C  C140  1  0.892770  0.863650  0.552120  1.0  -0.0306
  C  C141  1  0.900750  0.831500  0.527920  1.0  0.0375
  C  C142  1  0.910960  0.789300  0.499080  1.0  -0.0118
  C  C143  1  0.906000  0.721600  0.502440  1.0  -0.0989
  C  C144  1  0.915700  0.679600  0.475550  1.0  0.1288
  C  C145  1  0.928340  0.707800  0.442700  1.0  -0.1106
  C  C146  1  0.931830  0.775700  0.439670  1.0  0.0081
  C  C147  1  0.922640  0.818510  0.467370  1.0  -0.1142
  C  C148  1  0.909400  0.615200  0.478930  1.0  0.2033
  C  C149  1  0.907500  0.556000  0.483100  1.0  -0.0775
  C  C150  1  0.899000  0.483300  0.491310  1.0  -0.0552
  C  C151  1  0.862900  0.462500  0.518020  1.0  -0.11
  C  C152  1  0.859700  0.397100  0.525370  1.0  -0.048
  C  C153  1  0.892440  0.351000  0.506260  1.0  -0.1354
  C  C154  1  0.928300  0.371700  0.478020  1.0  -0.0461
  C  C155  1  0.934100  0.434800  0.470980  1.0  -0.1207
  C  C156  1  0.889500  0.277700  0.516410  1.0  0.6711
  C  C157  1  0.948200  0.802930  0.406550  1.0  0.0518
  C  C158  1  0.963870  0.818530  0.379460  1.0  -0.0052
  C  C159  1  0.988730  0.834600  0.345720  1.0  -0.0199
  C  C160  1  0.017600  0.783700  0.328370  1.0  -0.1357
  C  C161  1  0.046640  0.795800  0.297990  1.0  -0.0317
  C  C162  1  0.050260  0.857400  0.285040  1.0  -0.1301
  C  C163  1  0.016940  0.909240  0.302450  1.0  -0.0591
  C  C164  1  0.987760  0.897900  0.332750  1.0  -0.1085
  C  C165  1  0.086700  0.873800  0.252650  1.0  0.6692
  C  C166  1  0.156120  0.985560  0.172180  1.0  0.6935
  C  C167  1  0.144200  0.025790  0.140400  1.0  -0.1276
  C  C168  1  0.149810  0.092400  0.141180  1.0  -0.0228
  C  C169  1  0.137950  0.130150  0.112650  1.0  -0.1204
  C  C170  1  0.119230  0.097400  0.082490  1.0  -0.0303
  C  C171  1  0.114070  0.029600  0.081920  1.0  -0.0982
  C  C172  1  0.125910  0.992260  0.110930  1.0  -0.0586
  C  C173  1  0.107230  0.136350  0.052120  1.0  -0.0302
  C  C174  1  0.099250  0.168500  0.027920  1.0  0.0378
  C  C175  1  0.089040  0.210700  0.999080  1.0  -0.0121
  C  C176  1  0.094000  0.278400  0.002440  1.0  -0.0999
  C  C177  1  0.084300  0.320400  0.975550  1.0  0.1285
  C  C178  1  0.071660  0.292200  0.942700  1.0  -0.1117
  C  C179  1  0.068170  0.224300  0.939670  1.0  0.0068
  C  C180  1  0.077360  0.181490  0.967370  1.0  -0.1128
  C  C181  1  0.090600  0.384800  0.978930  1.0  0.2021
  C  C182  1  0.092500  0.444000  0.983100  1.0  -0.0729
  C  C183  1  0.101000  0.516700  0.991310  1.0  -0.0555
  C  C184  1  0.137100  0.537500  0.018020  1.0  -0.1067
  C  C185  1  0.140300  0.602900  0.025370  1.0  -0.0532
  C  C186  1  0.107560  0.649000  0.006260  1.0  -0.1362
  C  C187  1  0.071700  0.628300  0.978020  1.0  -0.0444
  C  C188  1  0.065900  0.565200  0.970980  1.0  -0.1215
  C  C189  1  0.110500  0.722300  0.016410  1.0  0.6698
  C  C190  1  0.051800  0.197070  0.906550  1.0  0.0501
  C  C191  1  0.036130  0.181470  0.879460  1.0  -0.0036
  C  C192  1  0.011270  0.165400  0.845720  1.0  -0.0195
  C  C193  1  0.982400  0.216300  0.828370  1.0  -0.1313
  C  C194  1  0.953360  0.204200  0.797990  1.0  -0.0292
  C  C195  1  0.949740  0.142600  0.785040  1.0  -0.1311
  C  C196  1  0.983060  0.090760  0.802450  1.0  -0.0581
  C  C197  1  0.012240  0.102100  0.832750  1.0  -0.1081
  C  C198  1  0.913300  0.126200  0.752650  1.0  0.6695
  C  C199  1  0.985560  0.843880  0.922180  1.0  0.6922
  C  C200  1  0.025790  0.855800  0.890400  1.0  -0.1252
  C  C201  1  0.092400  0.850190  0.891180  1.0  -0.029
  C  C202  1  0.130150  0.862050  0.862650  1.0  -0.1225
  C  C203  1  0.097400  0.880770  0.832490  1.0  -0.031
  C  C204  1  0.029600  0.885930  0.831920  1.0  -0.1045
  C  C205  1  0.992260  0.874090  0.860930  1.0  -0.0607
  C  C206  1  0.136350  0.892770  0.802120  1.0  -0.035
  C  C207  1  0.168500  0.900750  0.777920  1.0  0.0326
  C  C208  1  0.210700  0.910960  0.749080  1.0  -0.0105
  C  C209  1  0.278400  0.906000  0.752440  1.0  -0.0996
  C  C210  1  0.320400  0.915700  0.725550  1.0  0.1262
  C  C211  1  0.292200  0.928340  0.692700  1.0  -0.11
  C  C212  1  0.224300  0.931830  0.689670  1.0  0.0077
  C  C213  1  0.181490  0.922640  0.717370  1.0  -0.1183
  C  C214  1  0.384800  0.909400  0.728930  1.0  0.2052
  C  C215  1  0.444000  0.907500  0.733100  1.0  -0.0781
  C  C216  1  0.516700  0.899000  0.741310  1.0  -0.0559
  C  C217  1  0.537500  0.862900  0.768020  1.0  -0.1067
  C  C218  1  0.602900  0.859700  0.775370  1.0  -0.0531
  C  C219  1  0.649000  0.892440  0.756260  1.0  -0.135
  C  C220  1  0.628300  0.928300  0.728020  1.0  -0.0456
  C  C221  1  0.565200  0.934100  0.720980  1.0  -0.1211
  C  C222  1  0.722300  0.889500  0.766410  1.0  0.6666
  C  C223  1  0.197070  0.948200  0.656550  1.0  0.0518
  C  C224  1  0.181470  0.963870  0.629460  1.0  -0.002
  C  C225  1  0.165400  0.988730  0.595720  1.0  -0.0164
  C  C226  1  0.216300  0.017600  0.578370  1.0  -0.1375
  C  C227  1  0.204200  0.046640  0.547990  1.0  -0.0316
  C  C228  1  0.142600  0.050260  0.535040  1.0  -0.1323
  C  C229  1  0.090760  0.016940  0.552450  1.0  -0.0576
  C  C230  1  0.102100  0.987760  0.582750  1.0  -0.1055
  C  C231  1  0.126200  0.086700  0.502650  1.0  0.6694
  C  C232  1  0.014440  0.156120  0.422180  1.0  0.6929
  C  C233  1  0.974210  0.144200  0.390400  1.0  -0.1264
  C  C234  1  0.907600  0.149810  0.391180  1.0  -0.0268
  C  C235  1  0.869850  0.137950  0.362650  1.0  -0.1242
  C  C236  1  0.902600  0.119230  0.332490  1.0  -0.0298
  C  C237  1  0.970400  0.114070  0.331920  1.0  -0.1032
  C  C238  1  0.007740  0.125910  0.360930  1.0  -0.0619
  C  C239  1  0.863650  0.107230  0.302120  1.0  -0.0345
  C  C240  1  0.831500  0.099250  0.277920  1.0  0.0345
  C  C241  1  0.789300  0.089040  0.249080  1.0  -0.0091
  C  C242  1  0.721600  0.094000  0.252440  1.0  -0.1019
  C  C243  1  0.679600  0.084300  0.225550  1.0  0.1281
  C  C244  1  0.707800  0.071660  0.192700  1.0  -0.11
  C  C245  1  0.775700  0.068170  0.189670  1.0  0.0055
  C  C246  1  0.818510  0.077360  0.217370  1.0  -0.1143
  C  C247  1  0.615200  0.090600  0.228930  1.0  0.205
  C  C248  1  0.556000  0.092500  0.233100  1.0  -0.0764
  C  C249  1  0.483300  0.101000  0.241310  1.0  -0.0565
  C  C250  1  0.462500  0.137100  0.268020  1.0  -0.1079
  C  C251  1  0.397100  0.140300  0.275370  1.0  -0.0512
  C  C252  1  0.351000  0.107560  0.256260  1.0  -0.1353
  C  C253  1  0.371700  0.071700  0.228020  1.0  -0.0474
  C  C254  1  0.434800  0.065900  0.220980  1.0  -0.1212
  C  C255  1  0.277700  0.110500  0.266410  1.0  0.6669
  C  C256  1  0.802930  0.051800  0.156550  1.0  0.0517
  C  C257  1  0.818530  0.036130  0.129460  1.0  -0.0028
  C  C258  1  0.834600  0.011270  0.095720  1.0  -0.0171
  C  C259  1  0.783700  0.982400  0.078370  1.0  -0.1348
  C  C260  1  0.795800  0.953360  0.047990  1.0  -0.0297
  C  C261  1  0.857400  0.949740  0.035040  1.0  -0.1328
  C  C262  1  0.909240  0.983060  0.052450  1.0  -0.0594
  C  C263  1  0.897900  0.012240  0.082750  1.0  -0.1066
  C  C264  1  0.873800  0.913300  0.002650  1.0  0.669
  C  C265  1  0.156120  0.014440  0.327820  1.0  0.6932
  C  C266  1  0.144200  0.974210  0.359600  1.0  -0.1278
  C  C267  1  0.149810  0.907600  0.358820  1.0  -0.022
  C  C268  1  0.137950  0.869850  0.387350  1.0  -0.1182
  C  C269  1  0.119230  0.902600  0.417510  1.0  -0.0298
  C  C270  1  0.114070  0.970400  0.418080  1.0  -0.0984
  C  C271  1  0.125910  0.007740  0.389070  1.0  -0.0598
  C  C272  1  0.107230  0.863650  0.447880  1.0  -0.0299
  C  C273  1  0.099250  0.831500  0.472080  1.0  0.0377
  C  C274  1  0.089040  0.789300  0.500920  1.0  -0.0134
  C  C275  1  0.094000  0.721600  0.497560  1.0  -0.0995
  C  C276  1  0.084300  0.679600  0.524450  1.0  0.1282
  C  C277  1  0.071660  0.707800  0.557300  1.0  -0.1106
  C  C278  1  0.068170  0.775700  0.560330  1.0  0.0061
  C  C279  1  0.077360  0.818510  0.532630  1.0  -0.1138
  C  C280  1  0.090600  0.615200  0.521070  1.0  0.2047
  C  C281  1  0.092500  0.556000  0.516900  1.0  -0.0744
  C  C282  1  0.101000  0.483300  0.508690  1.0  -0.0559
  C  C283  1  0.137100  0.462500  0.481980  1.0  -0.1082
  C  C284  1  0.140300  0.397100  0.474630  1.0  -0.0492
  C  C285  1  0.107560  0.351000  0.493740  1.0  -0.1351
  C  C286  1  0.071700  0.371700  0.521980  1.0  -0.0445
  C  C287  1  0.065900  0.434800  0.529020  1.0  -0.1216
  C  C288  1  0.110500  0.277700  0.483590  1.0  0.6697
  C  C289  1  0.051800  0.802930  0.593450  1.0  0.0528
  C  C290  1  0.036130  0.818530  0.620540  1.0  -0.0051
  C  C291  1  0.011270  0.834600  0.654280  1.0  -0.0184
  C  C292  1  0.982400  0.783700  0.671630  1.0  -0.1359
  C  C293  1  0.953360  0.795800  0.702010  1.0  -0.0306
  C  C294  1  0.949740  0.857400  0.714960  1.0  -0.1303
  C  C295  1  0.983060  0.909240  0.697550  1.0  -0.0569
  C  C296  1  0.012240  0.897900  0.667250  1.0  -0.1088
  C  C297  1  0.913300  0.873800  0.747350  1.0  0.6698
  C  C298  1  0.843880  0.985560  0.827820  1.0  0.6927
  C  C299  1  0.855800  0.025790  0.859600  1.0  -0.1296
  C  C300  1  0.850190  0.092400  0.858820  1.0  -0.0235
  C  C301  1  0.862050  0.130150  0.887350  1.0  -0.1218
  C  C302  1  0.880770  0.097400  0.917510  1.0  -0.0294
  C  C303  1  0.885930  0.029600  0.918080  1.0  -0.0996
  C  C304  1  0.874090  0.992260  0.889070  1.0  -0.0581
  C  C305  1  0.892770  0.136350  0.947880  1.0  -0.03
  C  C306  1  0.900750  0.168500  0.972080  1.0  0.0379
  C  C307  1  0.910960  0.210700  0.000920  1.0  -0.0127
  C  C308  1  0.906000  0.278400  0.997560  1.0  -0.0997
  C  C309  1  0.915700  0.320400  0.024450  1.0  0.1294
  C  C310  1  0.928340  0.292200  0.057300  1.0  -0.1145
  C  C311  1  0.931830  0.224300  0.060330  1.0  0.0053
  C  C312  1  0.922640  0.181490  0.032630  1.0  -0.1137
  C  C313  1  0.909400  0.384800  0.021070  1.0  0.2034
  C  C314  1  0.907500  0.444000  0.016900  1.0  -0.0771
  C  C315  1  0.899000  0.516700  0.008690  1.0  -0.0559
  C  C316  1  0.862900  0.537500  0.981980  1.0  -0.1081
  C  C317  1  0.859700  0.602900  0.974630  1.0  -0.0509
  C  C318  1  0.892440  0.649000  0.993740  1.0  -0.1346
  C  C319  1  0.928300  0.628300  0.021980  1.0  -0.0463
  C  C320  1  0.934100  0.565200  0.029020  1.0  -0.1224
  C  C321  1  0.889500  0.722300  0.983590  1.0  0.6715
  C  C322  1  0.948200  0.197070  0.093450  1.0  0.0527
  C  C323  1  0.963870  0.181470  0.120540  1.0  -0.0028
  C  C324  1  0.988730  0.165400  0.154280  1.0  -0.0178
  C  C325  1  0.017600  0.216300  0.171630  1.0  -0.1305
  C  C326  1  0.046640  0.204200  0.202010  1.0  -0.0296
  C  C327  1  0.050260  0.142600  0.214960  1.0  -0.1307
  C  C328  1  0.016940  0.090760  0.197550  1.0  -0.0572
  C  C329  1  0.987760  0.102100  0.167250  1.0  -0.109
  C  C330  1  0.086700  0.126200  0.247350  1.0  0.6682
  C  C331  1  0.014440  0.843880  0.077820  1.0  0.6931
  C  C332  1  0.974210  0.855800  0.109600  1.0  -0.126
  C  C333  1  0.907600  0.850190  0.108820  1.0  -0.027
  C  C334  1  0.869850  0.862050  0.137350  1.0  -0.1243
  C  C335  1  0.902600  0.880770  0.167510  1.0  -0.0318
  C  C336  1  0.970400  0.885930  0.168080  1.0  -0.1035
  C  C337  1  0.007740  0.874090  0.139070  1.0  -0.0617
  C  C338  1  0.863650  0.892770  0.197880  1.0  -0.0346
  C  C339  1  0.831500  0.900750  0.222080  1.0  0.0355
  C  C340  1  0.789300  0.910960  0.250920  1.0  -0.0097
  C  C341  1  0.721600  0.906000  0.247560  1.0  -0.0992
  C  C342  1  0.679600  0.915700  0.274450  1.0  0.1277
  C  C343  1  0.707800  0.928340  0.307300  1.0  -0.1112
  C  C344  1  0.775700  0.931830  0.310330  1.0  0.0038
  C  C345  1  0.818510  0.922640  0.282630  1.0  -0.1138
  C  C346  1  0.615200  0.909400  0.271070  1.0  0.206
  C  C347  1  0.556000  0.907500  0.266900  1.0  -0.0774
  C  C348  1  0.483300  0.899000  0.258690  1.0  -0.0566
  C  C349  1  0.462500  0.862900  0.231980  1.0  -0.1067
  C  C350  1  0.397100  0.859700  0.224630  1.0  -0.0522
  C  C351  1  0.351000  0.892440  0.243740  1.0  -0.1344
  C  C352  1  0.371700  0.928300  0.271980  1.0  -0.0475
  C  C353  1  0.434800  0.934100  0.279020  1.0  -0.1214
  C  C354  1  0.277700  0.889500  0.233590  1.0  0.6665
  C  C355  1  0.802930  0.948200  0.343450  1.0  0.0532
  C  C356  1  0.818530  0.963870  0.370540  1.0  -0.0035
  C  C357  1  0.834600  0.988730  0.404280  1.0  -0.0173
  C  C358  1  0.783700  0.017600  0.421630  1.0  -0.1342
  C  C359  1  0.795800  0.046640  0.452010  1.0  -0.0302
  C  C360  1  0.857400  0.050260  0.464960  1.0  -0.1326
  C  C361  1  0.909240  0.016940  0.447550  1.0  -0.0576
  C  C362  1  0.897900  0.987760  0.417250  1.0  -0.1076
  C  C363  1  0.873800  0.086700  0.497350  1.0  0.6693
  C  C364  1  0.985560  0.156120  0.577820  1.0  0.6937
  C  C365  1  0.025790  0.144200  0.609600  1.0  -0.1277
  C  C366  1  0.092400  0.149810  0.608820  1.0  -0.0263
  C  C367  1  0.130150  0.137950  0.637350  1.0  -0.1238
  C  C368  1  0.097400  0.119230  0.667510  1.0  -0.0293
  C  C369  1  0.029600  0.114070  0.668080  1.0  -0.1043
  C  C370  1  0.992260  0.125910  0.639070  1.0  -0.063
  C  C371  1  0.136350  0.107230  0.697880  1.0  -0.0344
  C  C372  1  0.168500  0.099250  0.722080  1.0  0.0322
  C  C373  1  0.210700  0.089040  0.750920  1.0  -0.0108
  C  C374  1  0.278400  0.094000  0.747560  1.0  -0.1007
  C  C375  1  0.320400  0.084300  0.774450  1.0  0.1263
  C  C376  1  0.292200  0.071660  0.807300  1.0  -0.1117
  C  C377  1  0.224300  0.068170  0.810330  1.0  0.0066
  C  C378  1  0.181490  0.077360  0.782630  1.0  -0.1184
  C  C379  1  0.384800  0.090600  0.771070  1.0  0.2067
  C  C380  1  0.444000  0.092500  0.766900  1.0  -0.0779
  C  C381  1  0.516700  0.101000  0.758690  1.0  -0.0548
  C  C382  1  0.537500  0.137100  0.731980  1.0  -0.1088
  C  C383  1  0.602900  0.140300  0.724630  1.0  -0.0517
  C  C384  1  0.649000  0.107560  0.743740  1.0  -0.1356
  C  C385  1  0.628300  0.071700  0.771980  1.0  -0.0455
  C  C386  1  0.565200  0.065900  0.779020  1.0  -0.1215
  C  C387  1  0.722300  0.110500  0.733590  1.0  0.6669
  C  C388  1  0.197070  0.051800  0.843450  1.0  0.0534
  C  C389  1  0.181470  0.036130  0.870540  1.0  -0.0021
  C  C390  1  0.165400  0.011270  0.904280  1.0  -0.0151
  C  C391  1  0.216300  0.982400  0.921630  1.0  -0.1391
  C  C392  1  0.204200  0.953360  0.952010  1.0  -0.0321
  C  C393  1  0.142600  0.949740  0.964960  1.0  -0.1329
  C  C394  1  0.090760  0.983060  0.947550  1.0  -0.0568
  C  C395  1  0.102100  0.012240  0.917250  1.0  -0.1073
  C  C396  1  0.126200  0.913300  0.997350  1.0  0.6689
  O  O397  1  0.830320  0.984200  0.698340  1.0  -0.6125
  O  O398  1  0.849640  0.076140  0.668660  1.0  -0.6058
  O  O399  1  0.850980  0.263150  0.538890  1.0  -0.5918
  O  O400  1  0.928500  0.239360  0.499920  1.0  -0.6926
  O  O401  1  0.109220  0.826710  0.237260  1.0  -0.613
  O  O402  1  0.093260  0.930800  0.242960  1.0  -0.6637
  O  O403  1  0.169680  0.015800  0.198340  1.0  -0.6111
  O  O404  1  0.150360  0.923860  0.168660  1.0  -0.6055
  O  O405  1  0.149020  0.736850  0.038890  1.0  -0.5936
  O  O406  1  0.071500  0.760640  0.999920  1.0  -0.6926
  O  O407  1  0.890780  0.173290  0.737260  1.0  -0.6172
  O  O408  1  0.906740  0.069200  0.742960  1.0  -0.6634
  O  O409  1  0.015800  0.830320  0.948340  1.0  -0.6136
  O  O410  1  0.923860  0.849640  0.918660  1.0  -0.6032
  O  O411  1  0.736850  0.850980  0.788890  1.0  -0.5974
  O  O412  1  0.760640  0.928500  0.749920  1.0  -0.6951
  O  O413  1  0.173290  0.109220  0.487260  1.0  -0.6111
  O  O414  1  0.069200  0.093260  0.492960  1.0  -0.6625
  O  O415  1  0.984200  0.169680  0.448340  1.0  -0.6128
  O  O416  1  0.076140  0.150360  0.418660  1.0  -0.6033
  O  O417  1  0.263150  0.149020  0.288890  1.0  -0.5923
  O  O418  1  0.239360  0.071500  0.249920  1.0  -0.6921
  O  O419  1  0.826710  0.890780  0.987260  1.0  -0.6094
  O  O420  1  0.930800  0.906740  0.992960  1.0  -0.6624
  O  O421  1  0.169680  0.984200  0.301660  1.0  -0.6111
  O  O422  1  0.150360  0.076140  0.331340  1.0  -0.6056
  O  O423  1  0.149020  0.263150  0.461110  1.0  -0.5928
  O  O424  1  0.071500  0.239360  0.500080  1.0  -0.6925
  O  O425  1  0.890780  0.826710  0.762740  1.0  -0.6156
  O  O426  1  0.906740  0.930800  0.757040  1.0  -0.663
  O  O427  1  0.830320  0.015800  0.801660  1.0  -0.6119
  O  O428  1  0.849640  0.923860  0.831340  1.0  -0.6055
  O  O429  1  0.850980  0.736850  0.961110  1.0  -0.5912
  O  O430  1  0.928500  0.760640  0.000080  1.0  -0.6919
  O  O431  1  0.109220  0.173290  0.262740  1.0  -0.6166
  O  O432  1  0.093260  0.069200  0.257040  1.0  -0.6638
  O  O433  1  0.984200  0.830320  0.051660  1.0  -0.6134
  O  O434  1  0.076140  0.849640  0.081340  1.0  -0.6036
  O  O435  1  0.263150  0.850980  0.211110  1.0  -0.5927
  O  O436  1  0.239360  0.928500  0.250080  1.0  -0.6936
  O  O437  1  0.826710  0.109220  0.512740  1.0  -0.6102
  O  O438  1  0.930800  0.093260  0.507040  1.0  -0.6628
  O  O439  1  0.015800  0.169680  0.551660  1.0  -0.6125
  O  O440  1  0.923860  0.150360  0.581340  1.0  -0.6039
  O  O441  1  0.736850  0.149020  0.711110  1.0  -0.5954
  O  O442  1  0.760640  0.071500  0.750080  1.0  -0.6929
  O  O443  1  0.173290  0.890780  0.012740  1.0  -0.6114
  O  O444  1  0.069200  0.906740  0.007040  1.0  -0.6622
