# generated using pymatgen
data_Zn3H20C24(NO3)4
_symmetry_space_group_name_H-M   'P 1'
_cell_length_a   18.82920000
_cell_length_b   18.82920000
_cell_length_c   18.82920000
_cell_angle_alpha   68.76050000
_cell_angle_beta   74.01020000
_cell_angle_gamma   111.23900000
_symmetry_Int_Tables_number   1
_chemical_formula_structural   Zn3H20C24(NO3)4
_chemical_formula_sum   'Zn12 H80 C96 N16 O48'
_cell_volume   5124.85311677
_cell_formula_units_Z   4
loop_
 _symmetry_equiv_pos_site_id
 _symmetry_equiv_pos_as_xyz
  1  'x, y, z'
loop_
 _atom_site_type_symbol
 _atom_site_label
 _atom_site_symmetry_multiplicity
 _atom_site_fract_x
 _atom_site_fract_y
 _atom_site_fract_z
 _atom_site_occupancy
 _atom_site_charge
  Zn  Zn1  1  0.311250  0.853380  0.204310  1.0  1.0852
  Zn  Zn2  1  0.942310  0.146620  0.542130  1.0  1.0807
  Zn  Zn3  1  0.457870  0.515560  0.688750  1.0  1.0828
  Zn  Zn4  1  0.795690  0.484440  0.057690  1.0  1.0823
  Zn  Zn5  1  0.688750  0.146620  0.795690  1.0  1.0854
  Zn  Zn6  1  0.057690  0.853380  0.457870  1.0  1.0804
  Zn  Zn7  1  0.542130  0.484440  0.311250  1.0  1.0832
  Zn  Zn8  1  0.204310  0.515560  0.942310  1.0  1.0803
  Zn  Zn9  1  0.379650  0.650950  0.728700  1.0  0.9316
  Zn  Zn10  1  0.620350  0.349050  0.271300  1.0  0.9319
  Zn  Zn11  1  0.728700  0.108350  0.620350  1.0  0.9298
  Zn  Zn12  1  0.271300  0.891650  0.379650  1.0  0.93
  H  H13  1  0.493000  0.847100  0.787100  1.0  0.129
  H  H14  1  0.467200  0.930200  0.954800  1.0  0.119
  H  H15  1  0.336400  0.341000  0.891800  1.0  0.1131
  H  H16  1  0.280900  0.693600  0.022300  1.0  0.1138
  H  H17  1  0.365800  0.152900  0.354100  1.0  0.1271
  H  H18  1  0.115000  0.069800  0.463000  1.0  0.1194
  H  H19  1  0.767200  0.659000  0.004600  1.0  0.1124
  H  H20  1  0.284100  0.306400  0.412700  1.0  0.1177
  H  H21  1  0.645900  0.280100  0.507000  1.0  0.1283
  H  H22  1  0.537000  0.422000  0.532800  1.0  0.1197
  H  H23  1  0.995400  0.228200  0.663600  1.0  0.1093
  H  H24  1  0.587300  0.303200  0.719100  1.0  0.1151
  H  H25  1  0.212900  0.719900  0.634200  1.0  0.1275
  H  H26  1  0.045200  0.578000  0.885000  1.0  0.1197
  H  H27  1  0.108200  0.771800  0.232800  1.0  0.1076
  H  H28  1  0.977700  0.696800  0.715900  1.0  0.1161
  H  H29  1  0.507000  0.152900  0.212900  1.0  0.129
  H  H30  1  0.532800  0.069800  0.045200  1.0  0.1193
  H  H31  1  0.663600  0.659000  0.108200  1.0  0.1131
  H  H32  1  0.719100  0.306400  0.977700  1.0  0.1141
  H  H33  1  0.634200  0.847100  0.645900  1.0  0.1274
  H  H34  1  0.885000  0.930200  0.537000  1.0  0.1193
  H  H35  1  0.232800  0.341000  0.995400  1.0  0.1118
  H  H36  1  0.715900  0.693600  0.587300  1.0  0.1172
  H  H37  1  0.354100  0.719900  0.493000  1.0  0.1283
  H  H38  1  0.463000  0.578000  0.467200  1.0  0.1195
  H  H39  1  0.004600  0.771800  0.336400  1.0  0.1101
  H  H40  1  0.412700  0.696800  0.280900  1.0  0.1155
  H  H41  1  0.787100  0.280100  0.365800  1.0  0.1273
  H  H42  1  0.954800  0.422000  0.115000  1.0  0.1199
  H  H43  1  0.891800  0.228200  0.767200  1.0  0.1079
  H  H44  1  0.022300  0.303200  0.284100  1.0  0.117
  H  H45  1  0.526400  0.525000  0.872400  1.0  0.1213
  H  H46  1  0.490700  0.425400  0.938900  1.0  0.1209
  H  H47  1  0.529600  0.460000  0.839800  1.0  0.1238
  H  H48  1  0.677700  0.626600  0.777100  1.0  0.1225
  H  H49  1  0.677600  0.560600  0.745000  1.0  0.123
  H  H50  1  0.744500  0.595600  0.776300  1.0  0.123
  H  H51  1  0.602600  0.475000  0.998600  1.0  0.1209
  H  H52  1  0.635700  0.574600  0.934700  1.0  0.1217
  H  H53  1  0.700200  0.540000  0.930400  1.0  0.1236
  H  H54  1  0.596300  0.373400  0.948900  1.0  0.1226
  H  H55  1  0.694400  0.439400  0.883000  1.0  0.1244
  H  H56  1  0.628100  0.404400  0.851100  1.0  0.1228
  H  H57  1  0.001400  0.398800  0.473600  1.0  0.1237
  H  H58  1  0.065300  0.429600  0.509300  1.0  0.1211
  H  H59  1  0.069600  0.369400  0.470400  1.0  0.1207
  H  H60  1  0.051100  0.454800  0.322300  1.0  0.123
  H  H61  1  0.117000  0.422600  0.322400  1.0  0.1202
  H  H62  1  0.148900  0.520800  0.255500  1.0  0.1235
  H  H63  1  0.127600  0.601200  0.397400  1.0  0.12
  H  H64  1  0.061100  0.570400  0.364300  1.0  0.1213
  H  H65  1  0.160200  0.630600  0.299800  1.0  0.1228
  H  H66  1  0.222900  0.545200  0.403700  1.0  0.1234
  H  H67  1  0.255000  0.577400  0.305600  1.0  0.1198
  H  H68  1  0.223700  0.479200  0.371900  1.0  0.1224
  H  H69  1  0.473600  0.475000  0.127600  1.0  0.1207
  H  H70  1  0.509300  0.574600  0.061100  1.0  0.1211
  H  H71  1  0.470400  0.540000  0.160200  1.0  0.1233
  H  H72  1  0.322300  0.373400  0.222900  1.0  0.1219
  H  H73  1  0.322400  0.439400  0.255000  1.0  0.1216
  H  H74  1  0.255500  0.404400  0.223700  1.0  0.1238
  H  H75  1  0.397400  0.525000  0.001400  1.0  0.1209
  H  H76  1  0.364300  0.425400  0.065300  1.0  0.1207
  H  H77  1  0.299800  0.460000  0.069600  1.0  0.1212
  H  H78  1  0.403700  0.626600  0.051100  1.0  0.1228
  H  H79  1  0.305600  0.560600  0.117000  1.0  0.1213
  H  H80  1  0.371900  0.595600  0.148900  1.0  0.1222
  H  H81  1  0.998600  0.601200  0.526400  1.0  0.1222
  H  H82  1  0.934700  0.570400  0.490700  1.0  0.1228
  H  H83  1  0.930400  0.630600  0.529600  1.0  0.1215
  H  H84  1  0.948900  0.545200  0.677700  1.0  0.1232
  H  H85  1  0.883000  0.577400  0.677600  1.0  0.1209
  H  H86  1  0.851100  0.479200  0.744500  1.0  0.1227
  H  H87  1  0.872400  0.398800  0.602600  1.0  0.1201
  H  H88  1  0.938900  0.429600  0.635700  1.0  0.1209
  H  H89  1  0.839800  0.369400  0.700200  1.0  0.1219
  H  H90  1  0.777100  0.454800  0.596300  1.0  0.1244
  H  H91  1  0.745000  0.422600  0.694400  1.0  0.1205
  H  H92  1  0.776300  0.520800  0.628100  1.0  0.123
  C  C93  1  0.462700  0.836800  0.841500  1.0  0.0204
  C  C94  1  0.383200  0.758200  0.902000  1.0  -0.1663
  C  C95  1  0.366500  0.809200  0.003300  1.0  -0.1648
  C  C96  1  0.494900  0.898300  0.864000  1.0  -0.1169
  C  C97  1  0.446000  0.885700  0.942500  1.0  -0.021
  C  C98  1  0.325700  0.387200  0.881900  1.0  0.0397
  C  C99  1  0.334400  0.745300  0.983100  1.0  -0.0336
  C  C100  1  0.347800  0.687800  0.881000  1.0  0.7415
  C  C101  1  0.316500  0.794200  0.086500  1.0  0.6817
  C  C102  1  0.577000  0.982500  0.803700  1.0  0.7554
  C  C103  1  0.321700  0.163200  0.374100  1.0  0.0216
  C  C104  1  0.339800  0.241800  0.375000  1.0  -0.1653
  C  C105  1  0.187500  0.190800  0.442700  1.0  -0.1638
  C  C106  1  0.237700  0.101700  0.403400  1.0  -0.1175
  C  C107  1  0.171800  0.114300  0.439700  1.0  -0.0186
  C  C108  1  0.730900  0.612800  0.061500  1.0  0.0434
  C  C109  1  0.271600  0.254700  0.410900  1.0  -0.0348
  C  C110  1  0.431200  0.312200  0.340000  1.0  0.7408
  C  C111  1  0.119300  0.205800  0.477700  1.0  0.6805
  C  C112  1  0.213800  0.017500  0.405500  1.0  0.757
  C  C113  1  0.625900  0.304200  0.537300  1.0  0.0179
  C  C114  1  0.625000  0.285200  0.616800  1.0  -0.1642
  C  C115  1  0.557300  0.369800  0.633500  1.0  -0.1571
  C  C116  1  0.596600  0.358900  0.505100  1.0  -0.1187
  C  C117  1  0.560300  0.388500  0.554000  1.0  -0.0197
  C  C118  1  0.938500  0.207600  0.674300  1.0  0.0374
  C  C119  1  0.589100  0.317500  0.665600  1.0  -0.0399
  C  C120  1  0.660000  0.228800  0.652200  1.0  0.7388
  C  C121  1  0.522300  0.403000  0.683500  1.0  0.6832
  C  C122  1  0.594500  0.380700  0.423000  1.0  0.756
  C  C123  1  0.158500  0.695800  0.678300  1.0  0.0195
  C  C124  1  0.098000  0.714800  0.660200  1.0  -0.1657
  C  C125  1  0.996700  0.630200  0.812500  1.0  -0.1579
  C  C126  1  0.136000  0.641100  0.762300  1.0  -0.1179
  C  C127  1  0.057500  0.611500  0.828200  1.0  -0.0188
  C  C128  1  0.118100  0.792400  0.269100  1.0  0.0416
  C  C129  1  0.016900  0.682500  0.728400  1.0  -0.0371
  C  C130  1  0.119000  0.771200  0.568800  1.0  0.7409
  C  C131  1  0.913500  0.597000  0.880700  1.0  0.6811
  C  C132  1  0.196300  0.619300  0.786200  1.0  0.7516
  C  C133  1  0.537300  0.163200  0.158500  1.0  0.0187
  C  C134  1  0.616800  0.241800  0.098000  1.0  -0.1665
  C  C135  1  0.633500  0.190800  0.996700  1.0  -0.167
  C  C136  1  0.505100  0.101700  0.136000  1.0  -0.1177
  C  C137  1  0.554000  0.114300  0.057500  1.0  -0.0201
  C  C138  1  0.674300  0.612800  0.118100  1.0  0.0415
  C  C139  1  0.665600  0.254700  0.016900  1.0  -0.0333
  C  C140  1  0.652200  0.312200  0.119000  1.0  0.7431
  C  C141  1  0.683500  0.205800  0.913500  1.0  0.6812
  C  C142  1  0.423000  0.017500  0.196300  1.0  0.7556
  C  C143  1  0.678300  0.836800  0.625900  1.0  0.0191
  C  C144  1  0.660200  0.758200  0.625000  1.0  -0.1642
  C  C145  1  0.812500  0.809200  0.557300  1.0  -0.1628
  C  C146  1  0.762300  0.898300  0.596600  1.0  -0.1163
  C  C147  1  0.828200  0.885700  0.560300  1.0  -0.021
  C  C148  1  0.269100  0.387200  0.938500  1.0  0.0431
  C  C149  1  0.728400  0.745300  0.589100  1.0  -0.0334
  C  C150  1  0.568800  0.687800  0.660000  1.0  0.7403
  C  C151  1  0.880700  0.794200  0.522300  1.0  0.6787
  C  C152  1  0.786200  0.982500  0.594500  1.0  0.7572
  C  C153  1  0.374100  0.695800  0.462700  1.0  0.0159
  C  C154  1  0.375000  0.714800  0.383200  1.0  -0.1644
  C  C155  1  0.442700  0.630200  0.366500  1.0  -0.1565
  C  C156  1  0.403400  0.641100  0.494900  1.0  -0.1188
  C  C157  1  0.439700  0.611500  0.446000  1.0  -0.0215
  C  C158  1  0.061500  0.792400  0.325700  1.0  0.0374
  C  C159  1  0.410900  0.682500  0.334400  1.0  -0.0425
  C  C160  1  0.340000  0.771200  0.347800  1.0  0.7399
  C  C161  1  0.477700  0.597000  0.316500  1.0  0.681
  C  C162  1  0.405500  0.619300  0.577000  1.0  0.7563
  C  C163  1  0.841500  0.304200  0.321700  1.0  0.0201
  C  C164  1  0.902000  0.285200  0.339800  1.0  -0.1658
  C  C165  1  0.003300  0.369800  0.187500  1.0  -0.158
  C  C166  1  0.864000  0.358900  0.237700  1.0  -0.1177
  C  C167  1  0.942500  0.388500  0.171800  1.0  -0.0191
  C  C168  1  0.881900  0.207600  0.730900  1.0  0.0414
  C  C169  1  0.983100  0.317500  0.271600  1.0  -0.0365
  C  C170  1  0.881000  0.228800  0.431200  1.0  0.7399
  C  C171  1  0.086500  0.403000  0.119300  1.0  0.679
  C  C172  1  0.803700  0.380700  0.213800  1.0  0.7536
  C  C173  1  0.534200  0.475300  0.882500  1.0  -0.2489
  C  C174  1  0.686600  0.577800  0.785400  1.0  -0.2277
  C  C175  1  0.642200  0.524700  0.941100  1.0  -0.2482
  C  C176  1  0.636800  0.422200  0.891200  1.0  -0.2277
  C  C177  1  0.058900  0.416700  0.465800  1.0  -0.2487
  C  C178  1  0.108800  0.472000  0.313400  1.0  -0.2266
  C  C179  1  0.117500  0.583300  0.357800  1.0  -0.2511
  C  C180  1  0.214600  0.528000  0.363200  1.0  -0.2292
  C  C181  1  0.465800  0.524700  0.117500  1.0  -0.2486
  C  C182  1  0.313400  0.422200  0.214600  1.0  -0.2295
  C  C183  1  0.357800  0.475300  0.058900  1.0  -0.2493
  C  C184  1  0.363200  0.577800  0.108800  1.0  -0.2288
  C  C185  1  0.941100  0.583300  0.534200  1.0  -0.2493
  C  C186  1  0.891200  0.528000  0.686600  1.0  -0.2261
  C  C187  1  0.882500  0.416700  0.642200  1.0  -0.2498
  C  C188  1  0.785400  0.472000  0.636800  1.0  -0.2298
  N  N189  1  0.366300  0.462200  0.807900  1.0  -0.2164
  N  N190  1  0.729900  0.537800  0.095900  1.0  -0.2068
  N  N191  1  0.904100  0.174200  0.633700  1.0  -0.2085
  N  N192  1  0.192100  0.825800  0.270100  1.0  -0.2107
  N  N193  1  0.633700  0.537800  0.192100  1.0  -0.2128
  N  N194  1  0.270100  0.462200  0.904100  1.0  -0.2077
  N  N195  1  0.095900  0.825800  0.366300  1.0  -0.2092
  N  N196  1  0.807900  0.174200  0.729900  1.0  -0.2074
  N  N197  1  0.333800  0.514000  0.819800  1.0  -0.2909
  N  N198  1  0.666200  0.486000  0.180200  1.0  -0.2892
  N  N199  1  0.819800  0.153600  0.666200  1.0  -0.2954
  N  N200  1  0.180200  0.846400  0.333800  1.0  -0.2959
  N  N201  1  0.623600  0.500000  0.876400  1.0  -0.1328
  N  N202  1  0.123600  0.500000  0.376400  1.0  -0.1328
  N  N203  1  0.376400  0.500000  0.123600  1.0  -0.1337
  N  N204  1  0.876400  0.500000  0.623600  1.0  -0.1337
  O  O205  1  0.385200  0.697800  0.811000  1.0  -0.6495
  O  O206  1  0.347700  0.858200  0.098500  1.0  -0.6055
  O  O207  1  0.614700  0.005900  0.727200  1.0  -0.6125
  O  O208  1  0.610500  0.024200  0.835300  1.0  -0.6025
  O  O209  1  0.275300  0.618000  0.942300  1.0  -0.6136
  O  O210  1  0.250500  0.726600  0.142900  1.0  -0.4999
  O  O211  1  0.491200  0.302200  0.312600  1.0  -0.652
  O  O212  1  0.043300  0.141800  0.510500  1.0  -0.6029
  O  O213  1  0.266900  0.994100  0.391200  1.0  -0.6207
  O  O214  1  0.140500  0.975800  0.413700  1.0  -0.605
  O  O215  1  0.439700  0.382000  0.342700  1.0  -0.6124
  O  O216  1  0.130500  0.273400  0.476100  1.0  -0.5009
  O  O217  1  0.687400  0.196200  0.614800  1.0  -0.6539
  O  O218  1  0.489500  0.446200  0.652300  1.0  -0.5996
  O  O219  1  0.608800  0.341900  0.385300  1.0  -0.618
  O  O220  1  0.586300  0.445800  0.389500  1.0  -0.6053
  O  O221  1  0.657300  0.217600  0.724700  1.0  -0.6149
  O  O222  1  0.523900  0.393400  0.749500  1.0  -0.5015
  O  O223  1  0.189000  0.803800  0.508800  1.0  -0.6488
  O  O224  1  0.901500  0.553800  0.956700  1.0  -0.6007
  O  O225  1  0.272800  0.658100  0.733100  1.0  -0.6148
  O  O226  1  0.164700  0.554200  0.859500  1.0  -0.6143
  O  O227  1  0.057700  0.782400  0.560300  1.0  -0.6132
  O  O228  1  0.857100  0.606600  0.869500  1.0  -0.4993
  O  O229  1  0.614800  0.302200  0.189000  1.0  -0.651
  O  O230  1  0.652300  0.141800  0.901500  1.0  -0.6033
  O  O231  1  0.385300  0.994100  0.272800  1.0  -0.6134
  O  O232  1  0.389500  0.975800  0.164700  1.0  -0.6038
  O  O233  1  0.724700  0.382000  0.057700  1.0  -0.615
  O  O234  1  0.749500  0.273400  0.857100  1.0  -0.5023
  O  O235  1  0.508800  0.697800  0.687400  1.0  -0.6498
  O  O236  1  0.956700  0.858200  0.489500  1.0  -0.6044
  O  O237  1  0.733100  0.005900  0.608800  1.0  -0.6194
  O  O238  1  0.859500  0.024200  0.586300  1.0  -0.605
  O  O239  1  0.560300  0.618000  0.657300  1.0  -0.6136
  O  O240  1  0.869500  0.726600  0.523900  1.0  -0.5017
  O  O241  1  0.312600  0.803800  0.385200  1.0  -0.6527
  O  O242  1  0.510500  0.553800  0.347700  1.0  -0.5999
  O  O243  1  0.391200  0.658100  0.614700  1.0  -0.6173
  O  O244  1  0.413700  0.554200  0.610500  1.0  -0.6046
  O  O245  1  0.342700  0.782400  0.275300  1.0  -0.6139
  O  O246  1  0.476100  0.606600  0.250500  1.0  -0.4991
  O  O247  1  0.811000  0.196200  0.491200  1.0  -0.6492
  O  O248  1  0.098500  0.446200  0.043300  1.0  -0.6004
  O  O249  1  0.727200  0.341900  0.266900  1.0  -0.6116
  O  O250  1  0.835300  0.445800  0.140500  1.0  -0.6135
  O  O251  1  0.942300  0.217600  0.439700  1.0  -0.6135
  O  O252  1  0.142900  0.393400  0.130500  1.0  -0.5006
