# generated using pymatgen
data_UP2H2CO6
_symmetry_space_group_name_H-M   'P 1'
_cell_length_a   11.88300000
_cell_length_b   11.88300000
_cell_length_c   18.06600000
_cell_angle_alpha   90.00000000
_cell_angle_beta   90.00000000
_cell_angle_gamma   120.00000000
_symmetry_Int_Tables_number   1
_chemical_formula_structural   UP2H2CO6
_chemical_formula_sum   'U6 P12 H12 C6 O36'
_cell_volume   2209.24983810
_cell_formula_units_Z   6
loop_
 _symmetry_equiv_pos_site_id
 _symmetry_equiv_pos_as_xyz
  1  'x, y, z'
loop_
 _atom_site_type_symbol
 _atom_site_label
 _atom_site_symmetry_multiplicity
 _atom_site_fract_x
 _atom_site_fract_y
 _atom_site_fract_z
 _atom_site_occupancy
 _atom_site_charge
  U  U1  1  0.856520  0.442240  0.957720  1.0  1.9985
  U  U2  1  0.585720  0.143480  0.624390  1.0  1.9989
  U  U3  1  0.557760  0.414280  0.291060  1.0  1.9984
  U  U4  1  0.414280  0.557760  0.042280  1.0  1.999
  U  U5  1  0.442240  0.856520  0.375610  1.0  1.9988
  U  U6  1  0.143480  0.585720  0.708940  1.0  1.9983
  P  P7  1  0.512900  0.336900  0.968860  1.0  1.5794
  P  P8  1  0.661200  0.485400  0.099440  1.0  1.6528
  P  P9  1  0.824000  0.487100  0.635530  1.0  1.5804
  P  P10  1  0.824200  0.338800  0.766110  1.0  1.6537
  P  P11  1  0.663100  0.176000  0.302190  1.0  1.58
  P  P12  1  0.514600  0.175800  0.432770  1.0  1.6463
  P  P13  1  0.176000  0.663100  0.031140  1.0  1.5798
  P  P14  1  0.175800  0.514600  0.900560  1.0  1.6527
  P  P15  1  0.336900  0.512900  0.364470  1.0  1.5803
  P  P16  1  0.485400  0.661200  0.233890  1.0  1.6528
  P  P17  1  0.487100  0.824000  0.697810  1.0  1.5798
  P  P18  1  0.338800  0.824200  0.567230  1.0  1.646
  H  H19  1  0.462700  0.295900  0.094600  1.0  0.2009
  H  H20  1  0.577300  0.267700  0.073400  1.0  0.2167
  H  H21  1  0.833200  0.537300  0.761270  1.0  0.2004
  H  H22  1  0.690400  0.422700  0.740070  1.0  0.2139
  H  H23  1  0.704100  0.166800  0.427930  1.0  0.2028
  H  H24  1  0.732300  0.309600  0.406730  1.0  0.2153
  H  H25  1  0.166800  0.704100  0.905400  1.0  0.2004
  H  H26  1  0.309600  0.732300  0.926600  1.0  0.2171
  H  H27  1  0.295900  0.462700  0.238730  1.0  0.203
  H  H28  1  0.267700  0.577300  0.259930  1.0  0.2137
  H  H29  1  0.537300  0.833200  0.572070  1.0  0.2029
  H  H30  1  0.422700  0.690400  0.593270  1.0  0.2178
  C  C31  1  0.544400  0.328700  0.066200  1.0  -0.8178
  C  C32  1  0.784300  0.455600  0.732870  1.0  -0.8167
  C  C33  1  0.671300  0.215700  0.399530  1.0  -0.8156
  C  C34  1  0.215700  0.671300  0.933800  1.0  -0.8159
  C  C35  1  0.328700  0.544400  0.267130  1.0  -0.8131
  C  C36  1  0.455600  0.784300  0.600470  1.0  -0.8135
  O  O37  1  0.788200  0.522900  0.059200  1.0  -0.8319
  O  O38  1  0.685500  0.479100  0.182000  1.0  -0.8839
  O  O39  1  0.613400  0.579000  0.081900  1.0  -0.8437
  O  O40  1  0.464500  0.433400  0.960400  1.0  -0.8404
  O  O41  1  0.643500  0.387400  0.930600  1.0  -0.8447
  O  O42  1  0.415200  0.203800  0.940100  1.0  -0.5873
  O  O43  1  0.734700  0.211800  0.725870  1.0  -0.8342
  O  O44  1  0.793600  0.314500  0.848670  1.0  -0.8823
  O  O45  1  0.965600  0.386600  0.748570  1.0  -0.8413
  O  O46  1  0.968900  0.535500  0.627070  1.0  -0.8413
  O  O47  1  0.743900  0.356500  0.597270  1.0  -0.8464
  O  O48  1  0.788600  0.584800  0.606770  1.0  -0.588
  O  O49  1  0.477100  0.265300  0.392530  1.0  -0.8299
  O  O50  1  0.520900  0.206400  0.515330  1.0  -0.8827
  O  O51  1  0.421000  0.034400  0.415230  1.0  -0.8408
  O  O52  1  0.566600  0.031100  0.293730  1.0  -0.8419
  O  O53  1  0.612600  0.256100  0.263930  1.0  -0.8453
  O  O54  1  0.796200  0.211400  0.273430  1.0  -0.5844
  O  O55  1  0.265300  0.477100  0.940800  1.0  -0.833
  O  O56  1  0.206400  0.520900  0.818000  1.0  -0.8853
  O  O57  1  0.034400  0.421000  0.918100  1.0  -0.8458
  O  O58  1  0.031100  0.566600  0.039600  1.0  -0.8413
  O  O59  1  0.256100  0.612600  0.069400  1.0  -0.8446
  O  O60  1  0.211400  0.796200  0.059900  1.0  -0.5875
  O  O61  1  0.522900  0.788200  0.274130  1.0  -0.8335
  O  O62  1  0.479100  0.685500  0.151330  1.0  -0.8857
  O  O63  1  0.579000  0.613400  0.251430  1.0  -0.8409
  O  O64  1  0.433400  0.464500  0.372930  1.0  -0.8406
  O  O65  1  0.387400  0.643500  0.402730  1.0  -0.8456
  O  O66  1  0.203800  0.415200  0.393230  1.0  -0.5877
  O  O67  1  0.211800  0.734700  0.607470  1.0  -0.831
  O  O68  1  0.314500  0.793600  0.484670  1.0  -0.886
  O  O69  1  0.386600  0.965600  0.584770  1.0  -0.8412
  O  O70  1  0.535500  0.968900  0.706270  1.0  -0.8395
  O  O71  1  0.356500  0.743900  0.736070  1.0  -0.8445
  O  O72  1  0.584800  0.788600  0.726570  1.0  -0.5844
