# generated using pymatgen
data_KU3P4H4C2O15
_symmetry_space_group_name_H-M   'P 1'
_cell_length_a   9.08050000
_cell_length_b   23.61300000
_cell_length_c   12.83030000
_cell_angle_alpha   90.00000000
_cell_angle_beta   90.00000000
_cell_angle_gamma   90.00000000
_symmetry_Int_Tables_number   1
_chemical_formula_structural   KU3P4H4C2O15
_chemical_formula_sum   'K4 U12 P16 H16 C8 O60'
_cell_volume   2751.04529595
_cell_formula_units_Z   4
loop_
 _symmetry_equiv_pos_site_id
 _symmetry_equiv_pos_as_xyz
  1  'x, y, z'
loop_
 _atom_site_type_symbol
 _atom_site_label
 _atom_site_symmetry_multiplicity
 _atom_site_fract_x
 _atom_site_fract_y
 _atom_site_fract_z
 _atom_site_occupancy
 _atom_site_charge
  K  K1  1  0.114500  0.787950  0.936300  1.0  0.9592
  K  K2  1  0.885500  0.212050  0.936300  1.0  0.9593
  K  K3  1  0.614500  0.712050  0.063700  1.0  0.9586
  K  K4  1  0.385500  0.287950  0.063700  1.0  0.9586
  U  U5  1  0.145980  0.733060  0.657620  1.0  2.0752
  U  U6  1  0.634910  0.568420  0.923250  1.0  2.3996
  U  U7  1  0.694950  0.828270  0.850750  1.0  1.9443
  U  U8  1  0.854020  0.266940  0.657620  1.0  2.0716
  U  U9  1  0.365090  0.431580  0.923250  1.0  2.3982
  U  U10  1  0.305050  0.171730  0.850750  1.0  1.9419
  U  U11  1  0.645980  0.766940  0.342380  1.0  2.0702
  U  U12  1  0.134910  0.931580  0.076750  1.0  2.3994
  U  U13  1  0.194950  0.671730  0.149250  1.0  1.9529
  U  U14  1  0.354020  0.233060  0.342380  1.0  2.0762
  U  U15  1  0.865090  0.068420  0.076750  1.0  2.3993
  U  U16  1  0.805050  0.328270  0.149250  1.0  1.9439
  P  P17  1  0.321600  0.662270  0.877700  1.0  1.6822
  P  P18  1  0.228400  0.553250  0.964600  1.0  1.5753
  P  P19  1  0.831100  0.685510  0.814300  1.0  1.6056
  P  P20  1  0.747300  0.741540  0.617300  1.0  1.669
  P  P21  1  0.678400  0.337730  0.877700  1.0  1.6829
  P  P22  1  0.771600  0.446750  0.964600  1.0  1.575
  P  P23  1  0.168900  0.314490  0.814300  1.0  1.6052
  P  P24  1  0.252700  0.258460  0.617300  1.0  1.6708
  P  P25  1  0.821600  0.837730  0.122300  1.0  1.6835
  P  P26  1  0.728400  0.946750  0.035400  1.0  1.5752
  P  P27  1  0.331100  0.814490  0.185700  1.0  1.6051
  P  P28  1  0.247300  0.758460  0.382700  1.0  1.6714
  P  P29  1  0.178400  0.162270  0.122300  1.0  1.682
  P  P30  1  0.271600  0.053250  0.035400  1.0  1.5754
  P  P31  1  0.668900  0.185510  0.185700  1.0  1.6048
  P  P32  1  0.752700  0.241540  0.382700  1.0  1.671
  H  H33  1  0.107900  0.609400  0.847100  1.0  0.2178
  H  H34  1  0.246700  0.579300  0.793400  1.0  0.2166
  H  H35  1  0.783600  0.645500  0.651500  1.0  0.222
  H  H36  1  0.633000  0.666667  0.704000  1.0  0.2082
  H  H37  1  0.892100  0.390600  0.847100  1.0  0.2174
  H  H38  1  0.753300  0.420700  0.793400  1.0  0.217
  H  H39  1  0.216400  0.354500  0.651500  1.0  0.2196
  H  H40  1  0.367000  0.333400  0.704000  1.0  0.206
  H  H41  1  0.607900  0.890600  0.152900  1.0  0.2178
  H  H42  1  0.746700  0.920700  0.206600  1.0  0.2185
  H  H43  1  0.283600  0.854500  0.348500  1.0  0.2202
  H  H44  1  0.133000  0.833400  0.296000  1.0  0.2077
  H  H45  1  0.392100  0.109400  0.152900  1.0  0.2173
  H  H46  1  0.253300  0.079300  0.206600  1.0  0.2194
  H  H47  1  0.716400  0.145500  0.348500  1.0  0.2221
  H  H48  1  0.867000  0.166600  0.296000  1.0  0.206
  C  C49  1  0.212500  0.598900  0.857100  1.0  -0.7166
  C  C50  1  0.737300  0.676700  0.691400  1.0  -0.8347
  C  C51  1  0.787500  0.401100  0.857100  1.0  -0.7178
  C  C52  1  0.262700  0.323300  0.691400  1.0  -0.8434
  C  C53  1  0.712500  0.901100  0.142900  1.0  -0.7272
  C  C54  1  0.237300  0.823300  0.308600  1.0  -0.8455
  C  C55  1  0.287500  0.098900  0.142900  1.0  -0.7255
  C  C56  1  0.762700  0.176700  0.308600  1.0  -0.8441
  O  O57  1  0.816600  0.629500  0.876200  1.0  -0.8689
  O  O58  1  0.309300  0.701500  0.786100  1.0  -0.9336
  O  O59  1  0.660500  0.589700  0.054700  1.0  -0.7643
  O  O60  1  0.991600  0.700500  0.791500  1.0  -0.947
  O  O61  1  0.154400  0.801500  0.715600  1.0  -0.7627
  O  O62  1  0.672200  0.786700  0.682200  1.0  -0.8715
  O  O63  1  0.667300  0.732400  0.513900  1.0  -0.8605
  O  O64  1  0.752900  0.732700  0.872500  1.0  -0.992
  O  O65  1  0.173600  0.581400  0.060400  1.0  -0.8228
  O  O66  1  0.879400  0.845300  0.824000  1.0  -0.7892
  O  O67  1  0.146900  0.496700  0.942100  1.0  -0.7986
  O  O68  1  0.911300  0.754200  0.597700  1.0  -0.8872
  O  O69  1  0.389900  0.532600  0.970600  1.0  -0.9673
  O  O70  1  0.482200  0.643900  0.894800  1.0  -0.956
  O  O71  1  0.258200  0.689200  0.975200  1.0  -0.9894
  O  O72  1  0.183400  0.370500  0.876200  1.0  -0.871
  O  O73  1  0.690700  0.298500  0.786100  1.0  -0.9328
  O  O74  1  0.339500  0.410300  0.054700  1.0  -0.7647
  O  O75  1  0.008400  0.299500  0.791500  1.0  -0.9493
  O  O76  1  0.845600  0.198500  0.715600  1.0  -0.7643
  O  O77  1  0.327800  0.213300  0.682200  1.0  -0.8721
  O  O78  1  0.332700  0.267600  0.513900  1.0  -0.8609
  O  O79  1  0.247100  0.267300  0.872500  1.0  -0.9911
  O  O80  1  0.826400  0.418600  0.060400  1.0  -0.8238
  O  O81  1  0.120600  0.154700  0.824000  1.0  -0.7888
  O  O82  1  0.853100  0.503300  0.942100  1.0  -0.7978
  O  O83  1  0.088700  0.245800  0.597700  1.0  -0.8865
  O  O84  1  0.610100  0.467400  0.970600  1.0  -0.9673
  O  O85  1  0.517800  0.356100  0.894800  1.0  -0.9578
  O  O86  1  0.741800  0.310800  0.975200  1.0  -0.9889
  O  O87  1  0.316600  0.870500  0.123800  1.0  -0.869
  O  O88  1  0.809300  0.798500  0.213900  1.0  -0.9321
  O  O89  1  0.160500  0.910300  0.945300  1.0  -0.761
  O  O90  1  0.491600  0.799500  0.208500  1.0  -0.9478
  O  O91  1  0.654400  0.698500  0.284400  1.0  -0.7643
  O  O92  1  0.172200  0.713300  0.317800  1.0  -0.8703
  O  O93  1  0.167300  0.767600  0.486100  1.0  -0.8585
  O  O94  1  0.252900  0.767300  0.127500  1.0  -0.9913
  O  O95  1  0.673600  0.918600  0.939600  1.0  -0.8248
  O  O96  1  0.379400  0.654700  0.176000  1.0  -0.7883
  O  O97  1  0.646900  0.003300  0.057900  1.0  -0.7978
  O  O98  1  0.411300  0.745800  0.402300  1.0  -0.8871
  O  O99  1  0.889900  0.967400  0.029400  1.0  -0.9676
  O  O100  1  0.982200  0.856100  0.105200  1.0  -0.9557
  O  O101  1  0.758200  0.810800  0.024800  1.0  -0.9875
  O  O102  1  0.683400  0.129500  0.123800  1.0  -0.8684
  O  O103  1  0.190700  0.201500  0.213900  1.0  -0.9341
  O  O104  1  0.839500  0.089700  0.945300  1.0  -0.7622
  O  O105  1  0.508400  0.200500  0.208500  1.0  -0.9486
  O  O106  1  0.345600  0.301500  0.284400  1.0  -0.763
  O  O107  1  0.827800  0.286700  0.317800  1.0  -0.8721
  O  O108  1  0.832700  0.232400  0.486100  1.0  -0.8586
  O  O109  1  0.747100  0.232700  0.127500  1.0  -0.9915
  O  O110  1  0.326400  0.081400  0.939600  1.0  -0.8246
  O  O111  1  0.620600  0.345300  0.176000  1.0  -0.7893
  O  O112  1  0.353100  0.996700  0.057900  1.0  -0.7986
  O  O113  1  0.588700  0.254200  0.402300  1.0  -0.8865
  O  O114  1  0.110100  0.032600  0.029400  1.0  -0.967
  O  O115  1  0.017800  0.143900  0.105200  1.0  -0.9575
  O  O116  1  0.241800  0.189200  0.024800  1.0  -0.9883
