# generated using pymatgen
data_FeH9(CN)12
_symmetry_space_group_name_H-M   'P 1'
_cell_length_a   7.34950000
_cell_length_b   13.19960000
_cell_length_c   13.19960000
_cell_angle_alpha   63.36340000
_cell_angle_beta   79.30400000
_cell_angle_gamma   100.69600000
_symmetry_Int_Tables_number   1
_chemical_formula_structural   FeH9(CN)12
_chemical_formula_sum   'Fe2 H18 C24 N24'
_cell_volume   1070.74541005
_cell_formula_units_Z   2
loop_
 _symmetry_equiv_pos_site_id
 _symmetry_equiv_pos_as_xyz
  1  'x, y, z'
loop_
 _atom_site_type_symbol
 _atom_site_label
 _atom_site_symmetry_multiplicity
 _atom_site_fract_x
 _atom_site_fract_y
 _atom_site_fract_z
 _atom_site_occupancy
 _atom_site_charge
  Fe  Fe1  1  0.000000  0.000000  0.000000  1.0  0.458
  Fe  Fe2  1  0.500000  0.000000  0.000000  1.0  0.0115
  H  H3  1  0.904900  0.744200  0.000400  1.0  0.2179
  H  H4  1  0.296500  0.550900  0.114900  1.0  0.1178
  H  H5  1  0.819900  0.627500  0.888200  1.0  0.1296
  H  H6  1  0.905300  0.000400  0.255400  1.0  0.2184
  H  H7  1  0.411400  0.114900  0.334200  1.0  0.1173
  H  H8  1  0.708100  0.888200  0.484300  1.0  0.1292
  H  H9  1  0.160700  0.255400  0.744200  1.0  0.218
  H  H10  1  0.745600  0.334200  0.550900  1.0  0.118
  H  H11  1  0.192400  0.484300  0.627500  1.0  0.1293
  H  H12  1  0.095100  0.255800  0.999600  1.0  0.2199
  H  H13  1  0.703500  0.449100  0.885100  1.0  0.1169
  H  H14  1  0.180100  0.372500  0.111800  1.0  0.1298
  H  H15  1  0.094700  0.999600  0.744600  1.0  0.219
  H  H16  1  0.588600  0.885100  0.665800  1.0  0.1166
  H  H17  1  0.291900  0.111800  0.515700  1.0  0.1301
  H  H18  1  0.839300  0.744600  0.255800  1.0  0.2207
  H  H19  1  0.254400  0.665800  0.449100  1.0  0.1182
  H  H20  1  0.807600  0.515700  0.372500  1.0  0.1292
  C  C21  1  0.627340  0.718670  0.999950  1.0  0.3887
  C  C22  1  0.564700  0.605860  0.999760  1.0  -0.0346
  C  C23  1  0.380000  0.530400  0.066800  1.0  -0.0839
  C  C24  1  0.688900  0.576300  0.933000  1.0  -0.1099
  C  C25  1  0.627290  0.999950  0.281380  1.0  0.3899
  C  C26  1  0.564460  0.999760  0.394380  1.0  -0.0346
  C  C27  1  0.446800  0.066800  0.402800  1.0  -0.0845
  C  C28  1  0.621900  0.933000  0.490700  1.0  -0.1127
  C  C29  1  0.908670  0.281380  0.718670  1.0  0.3901
  C  C30  1  0.958840  0.394380  0.605860  1.0  -0.0353
  C  C31  1  0.849600  0.402800  0.530400  1.0  -0.0854
  C  C32  1  0.112600  0.490700  0.576300  1.0  -0.1117
  C  C33  1  0.372660  0.281330  0.000050  1.0  0.3904
  C  C34  1  0.435300  0.394140  0.000240  1.0  -0.0352
  C  C35  1  0.620000  0.469600  0.933200  1.0  -0.0858
  C  C36  1  0.311100  0.423700  0.067000  1.0  -0.1118
  C  C37  1  0.372710  0.000050  0.718620  1.0  0.3904
  C  C38  1  0.435540  0.000240  0.605620  1.0  -0.034
  C  C39  1  0.553200  0.933200  0.597200  1.0  -0.0847
  C  C40  1  0.378100  0.067000  0.509300  1.0  -0.1138
  C  C41  1  0.091330  0.718620  0.281330  1.0  0.3904
  C  C42  1  0.041160  0.605620  0.394140  1.0  -0.0341
  C  C43  1  0.150400  0.597200  0.469600  1.0  -0.0863
  C  C44  1  0.887400  0.509300  0.423700  1.0  -0.1102
  N  N45  1  0.503870  0.781940  0.000130  1.0  -0.3529
  N  N46  1  0.609190  0.876210  0.999840  1.0  -0.0595
  N  N47  1  0.786120  0.870170  0.000010  1.0  -0.1025
  N  N48  1  0.800350  0.770520  0.000170  1.0  -0.1914
  N  N49  1  0.504000  0.000130  0.217930  1.0  -0.3535
  N  N50  1  0.609030  0.999840  0.123950  1.0  -0.0522
  N  N51  1  0.786130  0.000010  0.129820  1.0  -0.1056
  N  N52  1  0.800520  0.000170  0.229310  1.0  -0.1881
  N  N53  1  0.721930  0.217930  0.781940  1.0  -0.3514
  N  N54  1  0.732980  0.123950  0.876210  1.0  -0.0501
  N  N55  1  0.915950  0.129820  0.870170  1.0  -0.1083
  N  N56  1  0.029830  0.229310  0.770520  1.0  -0.1908
  N  N57  1  0.496130  0.218060  0.999870  1.0  -0.3524
  N  N58  1  0.390810  0.123790  0.000160  1.0  -0.0601
  N  N59  1  0.213880  0.129830  0.999990  1.0  -0.1034
  N  N60  1  0.199650  0.229480  0.999830  1.0  -0.1915
  N  N61  1  0.496000  0.999870  0.782070  1.0  -0.3526
  N  N62  1  0.390970  0.000160  0.876050  1.0  -0.0507
  N  N63  1  0.213870  0.999990  0.870180  1.0  -0.1064
  N  N64  1  0.199480  0.999830  0.770690  1.0  -0.1902
  N  N65  1  0.278070  0.782070  0.218060  1.0  -0.3524
  N  N66  1  0.267020  0.876050  0.123790  1.0  -0.0513
  N  N67  1  0.084050  0.870180  0.129830  1.0  -0.1092
  N  N68  1  0.970170  0.770690  0.229480  1.0  -0.1903
