# generated using pymatgen
data_Mn3Fe4Sb6H12(C6O11)4
_symmetry_space_group_name_H-M   'P 1'
_cell_length_a   20.03760000
_cell_length_b   20.87400000
_cell_length_c   20.98070000
_cell_angle_alpha   90.00000000
_cell_angle_beta   90.00000000
_cell_angle_gamma   90.00000000
_symmetry_Int_Tables_number   1
_chemical_formula_structural   Mn3Fe4Sb6H12(C6O11)4
_chemical_formula_sum   'Mn12 Fe16 Sb24 H48 C96 O176'
_cell_volume   8775.48959856
_cell_formula_units_Z   4
loop_
 _symmetry_equiv_pos_site_id
 _symmetry_equiv_pos_as_xyz
  1  'x, y, z'
loop_
 _atom_site_type_symbol
 _atom_site_label
 _atom_site_symmetry_multiplicity
 _atom_site_fract_x
 _atom_site_fract_y
 _atom_site_fract_z
 _atom_site_occupancy
 _atom_site_charge
  Mn  Mn1  1  0.704930  0.053190  0.978690  1.0  1.1289
  Mn  Mn2  1  0.623830  0.968880  0.713980  1.0  1.114
  Mn  Mn3  1  0.553630  0.235220  0.805110  1.0  1.1268
  Mn  Mn4  1  0.795070  0.946810  0.478690  1.0  1.1283
  Mn  Mn5  1  0.876170  0.031120  0.213980  1.0  1.1167
  Mn  Mn6  1  0.946370  0.764780  0.305110  1.0  1.1264
  Mn  Mn7  1  0.295070  0.553190  0.521310  1.0  1.1283
  Mn  Mn8  1  0.376170  0.468880  0.786020  1.0  1.1122
  Mn  Mn9  1  0.446370  0.735220  0.694890  1.0  1.1257
  Mn  Mn10  1  0.204930  0.446810  0.021310  1.0  1.1286
  Mn  Mn11  1  0.123830  0.531120  0.286020  1.0  1.1142
  Mn  Mn12  1  0.053630  0.264780  0.194890  1.0  1.127
  Fe  Fe13  1  0.627620  0.086090  0.833270  1.0  1.0545
  Fe  Fe14  1  0.630660  0.190010  0.938370  1.0  1.1787
  Fe  Fe15  1  0.692780  0.953610  0.856820  1.0  1.1786
  Fe  Fe16  1  0.559020  0.114070  0.703590  1.0  1.1849
  Fe  Fe17  1  0.872380  0.913910  0.333270  1.0  1.0546
  Fe  Fe18  1  0.869340  0.809990  0.438370  1.0  1.1801
  Fe  Fe19  1  0.807220  0.046390  0.356820  1.0  1.1799
  Fe  Fe20  1  0.940980  0.885930  0.203590  1.0  1.1833
  Fe  Fe21  1  0.372380  0.586090  0.666667  1.0  1.0503
  Fe  Fe22  1  0.369340  0.690010  0.561630  1.0  1.1818
  Fe  Fe23  1  0.307220  0.453610  0.643180  1.0  1.1802
  Fe  Fe24  1  0.440980  0.614070  0.796410  1.0  1.1804
  Fe  Fe25  1  0.127620  0.413910  0.166730  1.0  1.0538
  Fe  Fe26  1  0.130660  0.309990  0.061630  1.0  1.1811
  Fe  Fe27  1  0.192780  0.546390  0.143180  1.0  1.179
  Fe  Fe28  1  0.059020  0.385930  0.296410  1.0  1.1815
  Sb  Sb29  1  0.787560  0.160310  0.872980  1.0  1.2394
  Sb  Sb30  1  0.779970  0.047900  0.746130  1.0  1.2721
  Sb  Sb31  1  0.706040  0.201700  0.726120  1.0  1.1965
  Sb  Sb32  1  0.549340  0.978530  0.949140  1.0  1.209
  Sb  Sb33  1  0.471550  0.003300  0.797590  1.0  1.2707
  Sb  Sb34  1  0.471250  0.128210  0.913040  1.0  1.2239
  Sb  Sb35  1  0.712440  0.839690  0.372980  1.0  1.2452
  Sb  Sb36  1  0.720030  0.952100  0.246130  1.0  1.2771
  Sb  Sb37  1  0.793960  0.798300  0.226120  1.0  1.2003
  Sb  Sb38  1  0.950660  0.021470  0.449140  1.0  1.212
  Sb  Sb39  1  0.028450  0.996700  0.297590  1.0  1.2638
  Sb  Sb40  1  0.028750  0.871790  0.413040  1.0  1.217
  Sb  Sb41  1  0.212440  0.660310  0.627020  1.0  1.2447
  Sb  Sb42  1  0.220030  0.547900  0.753870  1.0  1.2787
  Sb  Sb43  1  0.293960  0.701700  0.773880  1.0  1.198
  Sb  Sb44  1  0.450660  0.478530  0.550860  1.0  1.2082
  Sb  Sb45  1  0.528450  0.503300  0.702410  1.0  1.2653
  Sb  Sb46  1  0.528750  0.628210  0.586960  1.0  1.2163
  Sb  Sb47  1  0.287560  0.339690  0.127020  1.0  1.2409
  Sb  Sb48  1  0.279970  0.452100  0.253870  1.0  1.2701
  Sb  Sb49  1  0.206040  0.298300  0.273880  1.0  1.1957
  Sb  Sb50  1  0.049340  0.521470  0.050860  1.0  1.218
  Sb  Sb51  1  0.971550  0.496700  0.202410  1.0  1.2724
  Sb  Sb52  1  0.971250  0.371790  0.086960  1.0  1.2234
  H  H53  1  0.904800  0.031200  0.897600  1.0  0.1406
  H  H54  1  0.842300  0.951400  0.952200  1.0  0.1471
  H  H55  1  0.744900  0.077400  0.577900  1.0  0.1475
  H  H56  1  0.633000  0.040400  0.565600  1.0  0.1443
  H  H57  1  0.737200  0.346500  0.819300  1.0  0.1432
  H  H58  1  0.641900  0.352500  0.885500  1.0  0.1538
  H  H59  1  0.387200  0.319900  0.717700  1.0  0.146
  H  H60  1  0.496400  0.331600  0.676400  1.0  0.1509
  H  H61  1  0.413700  0.214100  0.707900  1.0  0.1491
  H  H62  1  0.351100  0.159700  0.787700  1.0  0.1413
  H  H63  1  0.622800  0.135200  0.100000  1.0  0.1574
  H  H64  1  0.522700  0.073500  0.093100  1.0  0.1447
  H  H65  1  0.595200  0.968800  0.397600  1.0  0.1418
  H  H66  1  0.657700  0.048600  0.452200  1.0  0.1469
  H  H67  1  0.755100  0.922600  0.077900  1.0  0.1481
  H  H68  1  0.867000  0.959600  0.065600  1.0  0.1439
  H  H69  1  0.762800  0.653500  0.319300  1.0  0.1447
  H  H70  1  0.858100  0.647500  0.385500  1.0  0.1524
  H  H71  1  0.112800  0.680100  0.217700  1.0  0.1451
  H  H72  1  0.003600  0.668400  0.176400  1.0  0.1509
  H  H73  1  0.086300  0.785900  0.207900  1.0  0.1491
  H  H74  1  0.148900  0.840300  0.287700  1.0  0.1401
  H  H75  1  0.877200  0.864800  0.600000  1.0  0.1569
  H  H76  1  0.977300  0.926500  0.593100  1.0  0.1442
  H  H77  1  0.095200  0.531200  0.602400  1.0  0.142
  H  H78  1  0.157700  0.451400  0.547800  1.0  0.1473
  H  H79  1  0.255100  0.577400  0.922100  1.0  0.1472
  H  H80  1  0.367000  0.540400  0.934400  1.0  0.1432
  H  H81  1  0.262800  0.846500  0.680700  1.0  0.1437
  H  H82  1  0.358100  0.852500  0.614500  1.0  0.1524
  H  H83  1  0.612800  0.819900  0.782300  1.0  0.1451
  H  H84  1  0.503600  0.831600  0.823600  1.0  0.1513
  H  H85  1  0.586300  0.714100  0.792100  1.0  0.1472
  H  H86  1  0.648900  0.659700  0.712300  1.0  0.1408
  H  H87  1  0.377200  0.635200  0.400000  1.0  0.1557
  H  H88  1  0.477300  0.573500  0.406900  1.0  0.1448
  H  H89  1  0.404800  0.468800  0.102400  1.0  0.1405
  H  H90  1  0.342300  0.548600  0.047800  1.0  0.1464
  H  H91  1  0.244900  0.422600  0.422100  1.0  0.1471
  H  H92  1  0.133000  0.459600  0.434400  1.0  0.1441
  H  H93  1  0.237200  0.153500  0.180700  1.0  0.1434
  H  H94  1  0.141900  0.147500  0.114500  1.0  0.1523
  H  H95  1  0.887200  0.180100  0.282300  1.0  0.1462
  H  H96  1  0.996400  0.168400  0.323600  1.0  0.1488
  H  H97  1  0.913700  0.285900  0.292100  1.0  0.1496
  H  H98  1  0.851100  0.340300  0.212300  1.0  0.142
  H  H99  1  0.122800  0.364800  0.900000  1.0  0.1545
  H  H100  1  0.022700  0.426500  0.906900  1.0  0.1436
  C  C101  1  0.853500  0.074600  0.970800  1.0  0.6697
  C  C102  1  0.857700  0.038100  0.908400  1.0  0.1137
  C  C103  1  0.823300  0.973700  0.915300  1.0  0.1229
  C  C104  1  0.834000  0.932600  0.856800  1.0  0.6862
  C  C105  1  0.737200  0.987500  0.620000  1.0  0.6994
  C  C106  1  0.720200  0.059100  0.613900  1.0  0.1002
  C  C107  1  0.645400  0.067000  0.602300  1.0  0.1194
  C  C108  1  0.628800  0.135700  0.586900  1.0  0.695
  C  C109  1  0.652500  0.332600  0.763900  1.0  0.6622
  C  C110  1  0.702100  0.313900  0.816700  1.0  0.1117
  C  C111  1  0.664700  0.311400  0.879500  1.0  0.1319
  C  C112  1  0.710700  0.301300  0.934900  1.0  0.6908
  C  C113  1  0.379500  0.339400  0.621100  1.0  0.7492
  C  C114  1  0.398600  0.356100  0.690100  1.0  0.1345
  C  C115  1  0.472500  0.368200  0.694600  1.0  0.06
  C  C116  1  0.492300  0.375900  0.765800  1.0  0.6987
  C  C117  1  0.417000  0.118500  0.687600  1.0  0.7103
  C  C118  1  0.431800  0.175700  0.728700  1.0  0.1269
  C  C119  1  0.398800  0.168200  0.793800  1.0  0.126
  C  C120  1  0.406700  0.231200  0.832000  1.0  0.6716
  C  C121  1  0.554000  0.188100  0.052000  1.0  0.7474
  C  C122  1  0.598900  0.131200  0.059400  1.0  0.1368
  C  C123  1  0.557800  0.069500  0.060800  1.0  0.1211
  C  C124  1  0.604900  0.012900  0.079100  1.0  0.6272
  C  C125  1  0.646500  0.925400  0.470800  1.0  0.6679
  C  C126  1  0.642300  0.961900  0.408400  1.0  0.1148
  C  C127  1  0.676700  0.026300  0.415300  1.0  0.1221
  C  C128  1  0.666000  0.067400  0.356800  1.0  0.6848
  C  C129  1  0.762800  0.012500  0.120000  1.0  0.6988
  C  C130  1  0.779800  0.940900  0.113900  1.0  0.1003
  C  C131  1  0.854600  0.933000  0.102300  1.0  0.1196
  C  C132  1  0.871200  0.864300  0.086900  1.0  0.6962
  C  C133  1  0.847500  0.667400  0.263900  1.0  0.6619
  C  C134  1  0.797900  0.686100  0.316700  1.0  0.1142
  C  C135  1  0.835300  0.688600  0.379500  1.0  0.1351
  C  C136  1  0.789300  0.698700  0.434900  1.0  0.692
  C  C137  1  0.120500  0.660600  0.121100  1.0  0.7477
  C  C138  1  0.101400  0.643900  0.190100  1.0  0.1341
  C  C139  1  0.027500  0.631800  0.194600  1.0  0.0579
  C  C140  1  0.007700  0.624100  0.265800  1.0  0.6997
  C  C141  1  0.083000  0.881500  0.187600  1.0  0.7088
  C  C142  1  0.068200  0.824300  0.228700  1.0  0.1282
  C  C143  1  0.101200  0.831800  0.293800  1.0  0.1249
  C  C144  1  0.093300  0.768800  0.332000  1.0  0.6713
  C  C145  1  0.946000  0.811900  0.552000  1.0  0.7513
  C  C146  1  0.901100  0.868800  0.559400  1.0  0.1385
  C  C147  1  0.942200  0.930500  0.560800  1.0  0.1207
  C  C148  1  0.895100  0.987100  0.579100  1.0  0.6272
  C  C149  1  0.146500  0.574600  0.529200  1.0  0.6722
  C  C150  1  0.142300  0.538100  0.591600  1.0  0.1147
  C  C151  1  0.176700  0.473700  0.584700  1.0  0.1216
  C  C152  1  0.166000  0.432600  0.643200  1.0  0.6845
  C  C153  1  0.262800  0.487500  0.880000  1.0  0.6991
  C  C154  1  0.279800  0.559100  0.886100  1.0  0.1007
  C  C155  1  0.354600  0.567000  0.897700  1.0  0.1188
  C  C156  1  0.371200  0.635700  0.913100  1.0  0.695
  C  C157  1  0.347500  0.832600  0.736100  1.0  0.6607
  C  C158  1  0.297900  0.813900  0.683300  1.0  0.1119
  C  C159  1  0.335300  0.811400  0.620500  1.0  0.1335
  C  C160  1  0.289300  0.801300  0.565100  1.0  0.6955
  C  C161  1  0.620500  0.839400  0.878900  1.0  0.7504
  C  C162  1  0.601400  0.856100  0.809900  1.0  0.1336
  C  C163  1  0.527500  0.868200  0.805400  1.0  0.0599
  C  C164  1  0.507700  0.875900  0.734200  1.0  0.7009
  C  C165  1  0.583000  0.618500  0.812400  1.0  0.7089
  C  C166  1  0.568200  0.675700  0.771300  1.0  0.1282
  C  C167  1  0.601200  0.668200  0.706200  1.0  0.126
  C  C168  1  0.593300  0.731200  0.668000  1.0  0.6693
  C  C169  1  0.446000  0.688100  0.448000  1.0  0.7494
  C  C170  1  0.401100  0.631200  0.440600  1.0  0.1397
  C  C171  1  0.442200  0.569500  0.439200  1.0  0.1213
  C  C172  1  0.395100  0.512900  0.420900  1.0  0.6278
  C  C173  1  0.353500  0.425400  0.029200  1.0  0.6712
  C  C174  1  0.357700  0.461900  0.091600  1.0  0.1139
  C  C175  1  0.323300  0.526300  0.084700  1.0  0.1218
  C  C176  1  0.334000  0.567400  0.143200  1.0  0.684
  C  C177  1  0.237200  0.512500  0.380000  1.0  0.6986
  C  C178  1  0.220200  0.440900  0.386100  1.0  0.1006
  C  C179  1  0.145400  0.433000  0.397700  1.0  0.1195
  C  C180  1  0.128800  0.364300  0.413100  1.0  0.6973
  C  C181  1  0.152500  0.167400  0.236100  1.0  0.6611
  C  C182  1  0.202100  0.186100  0.183300  1.0  0.1138
  C  C183  1  0.164700  0.188600  0.120500  1.0  0.134
  C  C184  1  0.210700  0.198700  0.065100  1.0  0.6927
  C  C185  1  0.879500  0.160600  0.378900  1.0  0.7489
  C  C186  1  0.898600  0.143900  0.309900  1.0  0.1337
  C  C187  1  0.972500  0.131800  0.305400  1.0  0.061
  C  C188  1  0.992300  0.124100  0.234200  1.0  0.6986
  C  C189  1  0.917000  0.381500  0.312400  1.0  0.7089
  C  C190  1  0.931800  0.324300  0.271300  1.0  0.1267
  C  C191  1  0.898800  0.331800  0.206200  1.0  0.1263
  C  C192  1  0.906700  0.268800  0.168000  1.0  0.6702
  C  C193  1  0.054000  0.311900  0.948000  1.0  0.7491
  C  C194  1  0.098900  0.368800  0.940600  1.0  0.14
  C  C195  1  0.057800  0.430500  0.939200  1.0  0.1226
  C  C196  1  0.104900  0.487100  0.920900  1.0  0.6279
  O  O197  1  0.768600  0.141240  0.775870  1.0  -0.8045
  O  O198  1  0.486000  0.031350  0.891600  1.0  -0.8187
  O  O199  1  0.694300  0.130690  0.890940  1.0  -0.7619
  O  O200  1  0.695200  0.026270  0.791410  1.0  -0.7637
  O  O201  1  0.629100  0.153560  0.762290  1.0  -0.7688
  O  O202  1  0.626500  0.014120  0.899860  1.0  -0.7711
  O  O203  1  0.556800  0.047100  0.775690  1.0  -0.7558
  O  O204  1  0.562100  0.143830  0.881000  1.0  -0.7509
  O  O205  1  0.805600  0.116700  0.973400  1.0  -0.6393
  O  O206  1  0.891300  0.062100  0.015000  1.0  -0.4569
  O  O207  1  0.826400  0.072800  0.857900  1.0  -0.6421
  O  O208  1  0.752800  0.983200  0.926400  1.0  -0.6058
  O  O209  1  0.780100  0.920600  0.824200  1.0  -0.5519
  O  O210  1  0.890000  0.914100  0.844200  1.0  -0.4196
  O  O211  1  0.735500  0.966200  0.677200  1.0  -0.7605
  O  O212  1  0.748100  0.955100  0.572900  1.0  -0.6028
  O  O213  1  0.737500  0.092200  0.670500  1.0  -0.6288
  O  O214  1  0.607000  0.046800  0.656000  1.0  -0.6232
  O  O215  1  0.591700  0.165300  0.628700  1.0  -0.5454
  O  O216  1  0.651700  0.162100  0.539100  1.0  -0.4747
  O  O217  1  0.626300  0.285800  0.734100  1.0  -0.6663
  O  O218  1  0.640300  0.390500  0.755200  1.0  -0.4525
  O  O219  1  0.731400  0.253400  0.804400  1.0  -0.6291
  O  O220  1  0.616200  0.262800  0.879100  1.0  -0.6206
  O  O221  1  0.706200  0.246600  0.963800  1.0  -0.5498
  O  O222  1  0.753600  0.342700  0.949900  1.0  -0.4633
  O  O223  1  0.342000  0.378400  0.592500  1.0  -0.5465
  O  O224  1  0.401700  0.289600  0.597000  1.0  -0.506
  O  O225  1  0.360700  0.409500  0.708900  1.0  -0.6148
  O  O226  1  0.489000  0.424850  0.659100  1.0  -0.6228
  O  O227  1  0.491000  0.434390  0.785300  1.0  -0.7619
  O  O228  1  0.506400  0.330400  0.798200  1.0  -0.604
  O  O229  1  0.469500  0.083100  0.672000  1.0  -0.54
  O  O230  1  0.361100  0.106300  0.670700  1.0  -0.417
  O  O231  1  0.502400  0.183770  0.736600  1.0  -0.6014
  O  O232  1  0.427300  0.116900  0.826500  1.0  -0.6513
  O  O233  1  0.456200  0.230900  0.870900  1.0  -0.6639
  O  O234  1  0.370200  0.276100  0.821200  1.0  -0.4575
  O  O235  1  0.557600  0.217400  0.998900  1.0  -0.5482
  O  O236  1  0.518700  0.204900  0.096900  1.0  -0.428
  O  O237  1  0.645900  0.129700  0.009900  1.0  -0.6226
  O  O238  1  0.528600  0.058400  0.001600  1.0  -0.6312
  O  O239  1  0.629500  0.983400  0.030000  1.0  -0.6692
  O  O240  1  0.618200  0.002500  0.135200  1.0  -0.4401
  O  O241  1  0.731400  0.858760  0.275870  1.0  -0.8064
  O  O242  1  0.014000  0.968650  0.391600  1.0  -0.8166
  O  O243  1  0.805700  0.869310  0.390940  1.0  -0.7622
  O  O244  1  0.804800  0.973730  0.291410  1.0  -0.7644
  O  O245  1  0.870900  0.846440  0.262290  1.0  -0.7694
  O  O246  1  0.873500  0.985880  0.399860  1.0  -0.7704
  O  O247  1  0.943200  0.952900  0.275690  1.0  -0.7568
  O  O248  1  0.937900  0.856170  0.381000  1.0  -0.7507
  O  O249  1  0.694400  0.883300  0.473400  1.0  -0.6383
  O  O250  1  0.608700  0.937900  0.515000  1.0  -0.4547
  O  O251  1  0.673600  0.927200  0.357900  1.0  -0.6418
  O  O252  1  0.747200  0.016800  0.426400  1.0  -0.6095
  O  O253  1  0.719900  0.079400  0.324200  1.0  -0.5532
  O  O254  1  0.610000  0.085900  0.344200  1.0  -0.4213
  O  O255  1  0.764500  0.033800  0.177200  1.0  -0.7613
  O  O256  1  0.751900  0.044900  0.072900  1.0  -0.6023
  O  O257  1  0.762500  0.907800  0.170500  1.0  -0.6277
  O  O258  1  0.893000  0.953200  0.156000  1.0  -0.6235
  O  O259  1  0.908300  0.834700  0.128700  1.0  -0.5449
  O  O260  1  0.848300  0.837900  0.039100  1.0  -0.4769
  O  O261  1  0.873700  0.714200  0.234100  1.0  -0.6664
  O  O262  1  0.859700  0.609500  0.255200  1.0  -0.455
  O  O263  1  0.768600  0.746600  0.304400  1.0  -0.6249
  O  O264  1  0.883800  0.737200  0.379100  1.0  -0.6195
  O  O265  1  0.793800  0.753400  0.463800  1.0  -0.5502
  O  O266  1  0.746400  0.657300  0.449900  1.0  -0.463
  O  O267  1  0.158000  0.621600  0.092500  1.0  -0.5478
  O  O268  1  0.098300  0.710400  0.097000  1.0  -0.506
  O  O269  1  0.139300  0.590500  0.208900  1.0  -0.6155
  O  O270  1  0.011000  0.575150  0.159100  1.0  -0.6231
  O  O271  1  0.009000  0.565610  0.285300  1.0  -0.7621
  O  O272  1  0.993600  0.669600  0.298200  1.0  -0.6037
  O  O273  1  0.030500  0.916900  0.172000  1.0  -0.541
  O  O274  1  0.138900  0.893700  0.170700  1.0  -0.416
  O  O275  1  0.997600  0.816230  0.236600  1.0  -0.5978
  O  O276  1  0.072700  0.883100  0.326500  1.0  -0.6522
  O  O277  1  0.043800  0.769100  0.370900  1.0  -0.6636
  O  O278  1  0.129800  0.723900  0.321200  1.0  -0.4567
  O  O279  1  0.942400  0.782600  0.498900  1.0  -0.5477
  O  O280  1  0.981300  0.795100  0.596900  1.0  -0.4301
  O  O281  1  0.854100  0.870300  0.509900  1.0  -0.6236
  O  O282  1  0.971400  0.941600  0.501600  1.0  -0.6322
  O  O283  1  0.870500  0.016600  0.530000  1.0  -0.6695
  O  O284  1  0.881800  0.997500  0.635200  1.0  -0.4426
  O  O285  1  0.231400  0.641240  0.724130  1.0  -0.8066
  O  O286  1  0.514000  0.531350  0.608400  1.0  -0.8167
  O  O287  1  0.305700  0.630690  0.609060  1.0  -0.762
  O  O288  1  0.304800  0.526270  0.708590  1.0  -0.7637
  O  O289  1  0.370900  0.653560  0.737710  1.0  -0.769
  O  O290  1  0.373500  0.514120  0.600140  1.0  -0.7701
  O  O291  1  0.443200  0.547100  0.724310  1.0  -0.7565
  O  O292  1  0.437900  0.643830  0.619000  1.0  -0.7512
  O  O293  1  0.194400  0.616700  0.526600  1.0  -0.6402
  O  O294  1  0.108700  0.562100  0.485000  1.0  -0.4562
  O  O295  1  0.173600  0.572800  0.642100  1.0  -0.6409
  O  O296  1  0.247200  0.483200  0.573600  1.0  -0.6092
  O  O297  1  0.219900  0.420600  0.675800  1.0  -0.554
  O  O298  1  0.110000  0.414100  0.655800  1.0  -0.4216
  O  O299  1  0.264500  0.466200  0.822800  1.0  -0.7593
  O  O300  1  0.251900  0.455100  0.927100  1.0  -0.6035
  O  O301  1  0.262500  0.592200  0.829500  1.0  -0.6258
  O  O302  1  0.393000  0.546800  0.844000  1.0  -0.6241
  O  O303  1  0.408300  0.665300  0.871300  1.0  -0.5466
  O  O304  1  0.348300  0.662100  0.960900  1.0  -0.4751
  O  O305  1  0.373700  0.785800  0.765900  1.0  -0.6666
  O  O306  1  0.359700  0.890500  0.744800  1.0  -0.4545
  O  O307  1  0.268600  0.753400  0.695600  1.0  -0.6272
  O  O308  1  0.383800  0.762800  0.620900  1.0  -0.6195
  O  O309  1  0.293800  0.746600  0.536200  1.0  -0.549
  O  O310  1  0.246400  0.842700  0.550100  1.0  -0.4641
  O  O311  1  0.658000  0.878400  0.907500  1.0  -0.5502
  O  O312  1  0.598300  0.789600  0.903000  1.0  -0.5031
  O  O313  1  0.639300  0.909500  0.791100  1.0  -0.6142
  O  O314  1  0.511000  0.924850  0.840900  1.0  -0.6215
  O  O315  1  0.509000  0.934390  0.714700  1.0  -0.7627
  O  O316  1  0.493600  0.830400  0.701800  1.0  -0.6041
  O  O317  1  0.530500  0.583100  0.828000  1.0  -0.5434
  O  O318  1  0.638900  0.606300  0.829300  1.0  -0.4185
  O  O319  1  0.497600  0.683770  0.763400  1.0  -0.5986
  O  O320  1  0.572700  0.616900  0.673500  1.0  -0.6527
  O  O321  1  0.543800  0.730900  0.629100  1.0  -0.6628
  O  O322  1  0.629800  0.776100  0.678800  1.0  -0.4578
  O  O323  1  0.442400  0.717400  0.501100  1.0  -0.5464
  O  O324  1  0.481300  0.704900  0.403100  1.0  -0.4278
  O  O325  1  0.354100  0.629700  0.490100  1.0  -0.6228
  O  O326  1  0.471400  0.558400  0.498400  1.0  -0.6307
  O  O327  1  0.370500  0.483400  0.470000  1.0  -0.6699
  O  O328  1  0.381800  0.502500  0.364800  1.0  -0.4406
  O  O329  1  0.268600  0.358760  0.224130  1.0  -0.807
  O  O330  1  0.986000  0.468650  0.108400  1.0  -0.8175
  O  O331  1  0.194300  0.369310  0.109060  1.0  -0.7616
  O  O332  1  0.195200  0.473730  0.208590  1.0  -0.7641
  O  O333  1  0.129100  0.346440  0.237710  1.0  -0.7678
  O  O334  1  0.126500  0.485880  0.100140  1.0  -0.7717
  O  O335  1  0.056800  0.452900  0.224310  1.0  -0.7567
  O  O336  1  0.062100  0.356170  0.119000  1.0  -0.7513
  O  O337  1  0.305600  0.383300  0.026600  1.0  -0.6406
  O  O338  1  0.391300  0.437900  0.985000  1.0  -0.4563
  O  O339  1  0.326400  0.427200  0.142100  1.0  -0.6415
  O  O340  1  0.252800  0.516800  0.073600  1.0  -0.6058
  O  O341  1  0.280100  0.579400  0.175800  1.0  -0.5531
  O  O342  1  0.390000  0.585900  0.155800  1.0  -0.4222
  O  O343  1  0.235500  0.533800  0.322800  1.0  -0.7582
  O  O344  1  0.248100  0.544900  0.427100  1.0  -0.6032
  O  O345  1  0.237500  0.407800  0.329500  1.0  -0.6276
  O  O346  1  0.107000  0.453200  0.344000  1.0  -0.6228
  O  O347  1  0.091700  0.334700  0.371300  1.0  -0.5469
  O  O348  1  0.151700  0.337900  0.460900  1.0  -0.4772
  O  O349  1  0.126300  0.214200  0.265900  1.0  -0.6656
  O  O350  1  0.140300  0.109500  0.244800  1.0  -0.456
  O  O351  1  0.231400  0.246600  0.195600  1.0  -0.6272
  O  O352  1  0.116200  0.237200  0.120900  1.0  -0.62
  O  O353  1  0.206200  0.253400  0.036200  1.0  -0.546
  O  O354  1  0.253600  0.157300  0.050100  1.0  -0.4631
  O  O355  1  0.842000  0.121600  0.407500  1.0  -0.5478
  O  O356  1  0.901700  0.210400  0.403000  1.0  -0.5037
  O  O357  1  0.860700  0.090500  0.291100  1.0  -0.615
  O  O358  1  0.989000  0.075150  0.340900  1.0  -0.6248
  O  O359  1  0.991000  0.065610  0.214700  1.0  -0.7649
  O  O360  1  0.006400  0.169600  0.201800  1.0  -0.6043
  O  O361  1  0.969500  0.416900  0.328000  1.0  -0.5438
  O  O362  1  0.861100  0.393700  0.329300  1.0  -0.4189
  O  O363  1  0.002400  0.316230  0.263400  1.0  -0.6026
  O  O364  1  0.927300  0.383100  0.173500  1.0  -0.6511
  O  O365  1  0.956200  0.269100  0.129100  1.0  -0.6639
  O  O366  1  0.870200  0.223900  0.178800  1.0  -0.4587
  O  O367  1  0.057600  0.282600  0.001100  1.0  -0.547
  O  O368  1  0.018700  0.295100  0.903100  1.0  -0.4276
  O  O369  1  0.145900  0.370300  0.990100  1.0  -0.6203
  O  O370  1  0.028600  0.441600  0.998400  1.0  -0.6299
  O  O371  1  0.129500  0.516600  0.970000  1.0  -0.671
  O  O372  1  0.118200  0.497500  0.864800  1.0  -0.4406
