# generated using pymatgen
data_ZnH12C20N2(OF)4
_symmetry_space_group_name_H-M   'P 1'
_cell_length_a   11.75270000
_cell_length_b   12.48290000
_cell_length_c   16.60890000
_cell_angle_alpha   90.00000000
_cell_angle_beta   90.47700000
_cell_angle_gamma   90.00000000
_symmetry_Int_Tables_number   1
_chemical_formula_structural   ZnH12C20N2(OF)4
_chemical_formula_sum   'Zn4 H48 C80 N8 O16 F16'
_cell_volume   2436.57038688
_cell_formula_units_Z   4
loop_
 _symmetry_equiv_pos_site_id
 _symmetry_equiv_pos_as_xyz
  1  'x, y, z'
loop_
 _atom_site_type_symbol
 _atom_site_label
 _atom_site_symmetry_multiplicity
 _atom_site_fract_x
 _atom_site_fract_y
 _atom_site_fract_z
 _atom_site_occupancy
 _atom_site_charge
  Zn  Zn1  1  0.648650  0.751970  0.749470  1.0  0.8494
  Zn  Zn2  1  0.351350  0.248030  0.250530  1.0  0.8494
  Zn  Zn3  1  0.851350  0.251970  0.750530  1.0  0.8494
  Zn  Zn4  1  0.148650  0.748030  0.249470  1.0  0.8495
  H  H5  1  0.735700  0.739400  0.577300  1.0  0.0716
  H  H6  1  0.819500  0.923900  0.757000  1.0  0.0714
  H  H7  1  0.878600  0.807300  0.500700  1.0  0.1331
  H  H8  1  0.959200  0.002800  0.683700  1.0  0.135
  H  H9  1  0.077100  0.005100  0.566400  1.0  0.0974
  H  H10  1  0.070700  0.907800  0.506600  1.0  0.1048
  H  H11  1  0.075000  0.484800  0.933900  1.0  0.0985
  H  H12  1  0.078400  0.586100  0.990000  1.0  0.1013
  H  H13  1  0.963500  0.500100  0.812100  1.0  0.1355
  H  H14  1  0.886800  0.692000  0.996800  1.0  0.1236
  H  H15  1  0.823300  0.583100  0.738200  1.0  0.0757
  H  H16  1  0.746100  0.766900  0.918800  1.0  0.0658
  H  H17  1  0.264300  0.260600  0.422700  1.0  0.0714
  H  H18  1  0.180500  0.076100  0.243000  1.0  0.0724
  H  H19  1  0.121400  0.192700  0.499300  1.0  0.1328
  H  H20  1  0.040800  0.997200  0.316300  1.0  0.135
  H  H21  1  0.922900  0.994900  0.433600  1.0  0.0974
  H  H22  1  0.929300  0.092200  0.493400  1.0  0.1051
  H  H23  1  0.925000  0.515200  0.066100  1.0  0.0996
  H  H24  1  0.921600  0.413900  0.010000  1.0  0.1024
  H  H25  1  0.036500  0.499900  0.187900  1.0  0.1358
  H  H26  1  0.113200  0.308000  0.003200  1.0  0.1236
  H  H27  1  0.176700  0.416900  0.261800  1.0  0.0744
  H  H28  1  0.253900  0.233100  0.081200  1.0  0.0654
  H  H29  1  0.764300  0.239400  0.922700  1.0  0.0717
  H  H30  1  0.680500  0.423900  0.743000  1.0  0.0721
  H  H31  1  0.621400  0.307300  0.999300  1.0  0.1322
  H  H32  1  0.540800  0.502800  0.816300  1.0  0.1353
  H  H33  1  0.422900  0.505100  0.933600  1.0  0.0974
  H  H34  1  0.429300  0.407800  0.993400  1.0  0.1049
  H  H35  1  0.425000  0.984800  0.566100  1.0  0.0998
  H  H36  1  0.421600  0.086100  0.510000  1.0  0.1025
  H  H37  1  0.536500  0.000100  0.687900  1.0  0.1358
  H  H38  1  0.613200  0.192000  0.503200  1.0  0.1235
  H  H39  1  0.676700  0.083100  0.761800  1.0  0.0744
  H  H40  1  0.753900  0.266900  0.581200  1.0  0.0666
  H  H41  1  0.235700  0.760600  0.077300  1.0  0.0719
  H  H42  1  0.319500  0.576100  0.257000  1.0  0.0713
  H  H43  1  0.378600  0.692700  0.000700  1.0  0.1336
  H  H44  1  0.459200  0.497200  0.183700  1.0  0.1351
  H  H45  1  0.577100  0.494900  0.066400  1.0  0.0978
  H  H46  1  0.570700  0.592200  0.006600  1.0  0.1044
  H  H47  1  0.575000  0.015200  0.433900  1.0  0.0979
  H  H48  1  0.578400  0.913900  0.490000  1.0  0.1021
  H  H49  1  0.463500  0.999900  0.312100  1.0  0.1356
  H  H50  1  0.386800  0.808000  0.496800  1.0  0.1237
  H  H51  1  0.323300  0.916900  0.238200  1.0  0.0756
  H  H52  1  0.246100  0.733100  0.418800  1.0  0.0667
  C  C53  1  0.533300  0.660900  0.627500  1.0  0.6746
  C  C54  1  0.514700  0.575100  0.563900  1.0  -0.2444
  C  C55  1  0.412900  0.564900  0.522300  1.0  0.186
  C  C56  1  0.398300  0.492200  0.460500  1.0  0.1857
  C  C57  1  0.524400  0.975800  0.078100  1.0  0.1934
  C  C58  1  0.541800  0.901200  0.018800  1.0  0.1774
  C  C59  1  0.517600  0.923100  0.938000  1.0  -0.2513
  C  C60  1  0.537100  0.839700  0.872800  1.0  0.6938
  C  C61  1  0.782600  0.792000  0.599400  1.0  0.1727
  C  C62  1  0.831000  0.901000  0.704500  1.0  0.1736
  C  C63  1  0.867500  0.833200  0.552600  1.0  -0.2224
  C  C64  1  0.915800  0.948100  0.661100  1.0  -0.2095
  C  C65  1  0.936500  0.913400  0.582700  1.0  0.1716
  C  C66  1  0.026300  0.963500  0.532300  1.0  -0.1764
  C  C67  1  0.028800  0.532300  0.966400  1.0  -0.1748
  C  C68  1  0.941000  0.585700  0.914000  1.0  0.1667
  C  C69  1  0.920400  0.554300  0.835200  1.0  -0.2103
  C  C70  1  0.874600  0.667400  0.944600  1.0  -0.2183
  C  C71  1  0.835000  0.604100  0.791300  1.0  0.1758
  C  C72  1  0.790100  0.712300  0.897100  1.0  0.178
  C  C73  1  0.466700  0.339100  0.372500  1.0  0.6726
  C  C74  1  0.485300  0.424900  0.436100  1.0  -0.2457
  C  C75  1  0.587100  0.435100  0.477700  1.0  0.1843
  C  C76  1  0.601700  0.507800  0.539500  1.0  0.1903
  C  C77  1  0.475600  0.024200  0.921900  1.0  0.1944
  C  C78  1  0.458200  0.098800  0.981200  1.0  0.1774
  C  C79  1  0.482400  0.076900  0.062000  1.0  -0.2492
  C  C80  1  0.462900  0.160300  0.127200  1.0  0.6934
  C  C81  1  0.217400  0.208000  0.400600  1.0  0.1722
  C  C82  1  0.169000  0.099000  0.295500  1.0  0.1744
  C  C83  1  0.132500  0.166800  0.447400  1.0  -0.2239
  C  C84  1  0.084200  0.051900  0.338900  1.0  -0.2083
  C  C85  1  0.063500  0.086600  0.417300  1.0  0.1712
  C  C86  1  0.973700  0.036500  0.467700  1.0  -0.1744
  C  C87  1  0.971200  0.467700  0.033600  1.0  -0.1759
  C  C88  1  0.059000  0.414300  0.086000  1.0  0.1653
  C  C89  1  0.079600  0.445700  0.164800  1.0  -0.2105
  C  C90  1  0.125400  0.332600  0.055400  1.0  -0.2178
  C  C91  1  0.165000  0.395900  0.208700  1.0  0.1766
  C  C92  1  0.209900  0.287700  0.102900  1.0  0.1768
  C  C93  1  0.966700  0.160900  0.872500  1.0  0.6733
  C  C94  1  0.985300  0.075100  0.936100  1.0  -0.2459
  C  C95  1  0.087100  0.064900  0.977700  1.0  0.1859
  C  C96  1  0.101700  0.992200  0.039500  1.0  0.187
  C  C97  1  0.975600  0.475800  0.421900  1.0  0.1943
  C  C98  1  0.958200  0.401200  0.481200  1.0  0.177
  C  C99  1  0.982400  0.423100  0.562000  1.0  -0.2495
  C  C100  1  0.962900  0.339700  0.627200  1.0  0.6933
  C  C101  1  0.717400  0.292000  0.900600  1.0  0.1729
  C  C102  1  0.669000  0.401000  0.795500  1.0  0.1741
  C  C103  1  0.632500  0.333200  0.947400  1.0  -0.2232
  C  C104  1  0.584200  0.448100  0.838900  1.0  -0.2088
  C  C105  1  0.563500  0.413400  0.917300  1.0  0.1716
  C  C106  1  0.473700  0.463500  0.967700  1.0  -0.1746
  C  C107  1  0.471200  0.032300  0.533600  1.0  -0.1764
  C  C108  1  0.559000  0.085700  0.586000  1.0  0.1653
  C  C109  1  0.579600  0.054300  0.664800  1.0  -0.2103
  C  C110  1  0.625400  0.167400  0.555400  1.0  -0.219
  C  C111  1  0.665000  0.104100  0.708700  1.0  0.176
  C  C112  1  0.709900  0.212300  0.602900  1.0  0.177
  C  C113  1  0.033300  0.839100  0.127500  1.0  0.6736
  C  C114  1  0.014700  0.924900  0.063900  1.0  -0.2442
  C  C115  1  0.912900  0.935100  0.022300  1.0  0.1847
  C  C116  1  0.898300  0.007800  0.960500  1.0  0.189
  C  C117  1  0.024400  0.524200  0.578100  1.0  0.1932
  C  C118  1  0.041800  0.598800  0.518800  1.0  0.1774
  C  C119  1  0.017600  0.576900  0.438000  1.0  -0.2507
  C  C120  1  0.037100  0.660300  0.372800  1.0  0.6942
  C  C121  1  0.282600  0.708000  0.099400  1.0  0.1724
  C  C122  1  0.331000  0.599000  0.204500  1.0  0.1735
  C  C123  1  0.367500  0.666800  0.052600  1.0  -0.2234
  C  C124  1  0.415800  0.551900  0.161100  1.0  -0.2101
  C  C125  1  0.436500  0.586600  0.082700  1.0  0.1709
  C  C126  1  0.526300  0.536500  0.032300  1.0  -0.1765
  C  C127  1  0.528800  0.967700  0.466400  1.0  -0.1755
  C  C128  1  0.441000  0.914300  0.414000  1.0  0.1662
  C  C129  1  0.420400  0.945700  0.335200  1.0  -0.2099
  C  C130  1  0.374600  0.832600  0.444600  1.0  -0.2179
  C  C131  1  0.335000  0.895900  0.291300  1.0  0.1757
  C  C132  1  0.290100  0.787700  0.397100  1.0  0.1782
  N  N133  1  0.763600  0.823500  0.675100  1.0  -0.3537
  N  N134  1  0.768500  0.680900  0.821200  1.0  -0.3505
  N  N135  1  0.236400  0.176500  0.324900  1.0  -0.3562
  N  N136  1  0.231500  0.319100  0.178800  1.0  -0.3529
  N  N137  1  0.736400  0.323500  0.824900  1.0  -0.3563
  N  N138  1  0.731500  0.180900  0.678800  1.0  -0.353
  N  N139  1  0.263600  0.676500  0.175100  1.0  -0.3539
  N  N140  1  0.268500  0.819100  0.321200  1.0  -0.3513
  O  O141  1  0.587400  0.629300  0.690700  1.0  -0.5917
  O  O142  1  0.501200  0.753000  0.614600  1.0  -0.5547
  O  O143  1  0.593200  0.872800  0.812470  1.0  -0.5925
  O  O144  1  0.504300  0.747500  0.883020  1.0  -0.5644
  O  O145  1  0.412600  0.370700  0.309300  1.0  -0.5914
  O  O146  1  0.498800  0.247000  0.385400  1.0  -0.5551
  O  O147  1  0.406800  0.127200  0.187530  1.0  -0.594
  O  O148  1  0.495700  0.252500  0.116980  1.0  -0.5649
  O  O149  1  0.912600  0.129300  0.809300  1.0  -0.5915
  O  O150  1  0.998800  0.253000  0.885400  1.0  -0.5544
  O  O151  1  0.906800  0.372800  0.687530  1.0  -0.5944
  O  O152  1  0.995700  0.247500  0.616980  1.0  -0.5657
  O  O153  1  0.087400  0.870700  0.190700  1.0  -0.592
  O  O154  1  0.001200  0.747000  0.114600  1.0  -0.5546
  O  O155  1  0.093200  0.627200  0.312470  1.0  -0.5927
  O  O156  1  0.004300  0.752500  0.383020  1.0  -0.5641
  F  F157  1  0.322200  0.622700  0.544640  1.0  -0.1193
  F  F158  1  0.294500  0.486400  0.425580  1.0  -0.119
  F  F159  1  0.551400  0.947600  0.154290  1.0  -0.1344
  F  F160  1  0.586600  0.806100  0.039000  1.0  -0.1214
  F  F161  1  0.677800  0.377300  0.455360  1.0  -0.12
  F  F162  1  0.705500  0.513600  0.574420  1.0  -0.1197
  F  F163  1  0.448600  0.052400  0.845710  1.0  -0.1351
  F  F164  1  0.413400  0.193900  0.961000  1.0  -0.1201
  F  F165  1  0.177800  0.122700  0.955360  1.0  -0.12
  F  F166  1  0.205500  0.986400  0.074420  1.0  -0.1198
  F  F167  1  0.948600  0.447600  0.345710  1.0  -0.135
  F  F168  1  0.913400  0.306100  0.461000  1.0  -0.121
  F  F169  1  0.822200  0.877300  0.044640  1.0  -0.119
  F  F170  1  0.794500  0.013600  0.925580  1.0  -0.1188
  F  F171  1  0.051400  0.552400  0.654290  1.0  -0.1349
  F  F172  1  0.086600  0.693900  0.539000  1.0  -0.121
