# generated using pymatgen
data_CdH14C24(NO2)2
_symmetry_space_group_name_H-M   'P 1'
_cell_length_a   7.54400000
_cell_length_b   14.72970000
_cell_length_c   14.72970000
_cell_angle_alpha   116.91600000
_cell_angle_beta   104.42800000
_cell_angle_gamma   75.57210000
_symmetry_Int_Tables_number   1
_chemical_formula_structural   CdH14C24(NO2)2
_chemical_formula_sum   'Cd2 H28 C48 N4 O8'
_cell_volume   1395.70201993
_cell_formula_units_Z   2
loop_
 _symmetry_equiv_pos_site_id
 _symmetry_equiv_pos_as_xyz
  1  'x, y, z'
loop_
 _atom_site_type_symbol
 _atom_site_label
 _atom_site_symmetry_multiplicity
 _atom_site_fract_x
 _atom_site_fract_y
 _atom_site_fract_z
 _atom_site_occupancy
 _atom_site_charge
  Cd  Cd1  1  0.751570  0.918900  0.132620  1.0  1.0486
  Cd  Cd2  1  0.251570  0.867380  0.081100  1.0  1.049
  H  H3  1  0.861400  0.615300  0.838900  1.0  0.1057
  H  H4  1  0.958700  0.445700  0.726500  1.0  0.121
  H  H5  1  0.214100  0.569700  0.073300  1.0  0.1164
  H  H6  1  0.306300  0.402800  0.963800  1.0  0.099
  H  H7  1  0.031000  0.289400  0.632200  1.0  0.1086
  H  H8  1  0.937600  0.221700  0.475700  1.0  0.1246
  H  H9  1  0.796700  0.137000  0.307800  1.0  0.0838
  H  H10  1  0.058500  0.873200  0.301800  1.0  0.0843
  H  H11  1  0.204200  0.948700  0.464900  1.0  0.1254
  H  H12  1  0.337800  0.020500  0.612900  1.0  0.1089
  H  H13  1  0.577100  0.951100  0.675500  1.0  0.1229
  H  H14  1  0.795500  0.861100  0.764500  1.0  0.1046
  H  H15  1  0.749800  0.108700  0.032100  1.0  0.1025
  H  H16  1  0.533000  0.198200  0.945000  1.0  0.0974
  H  H17  1  0.361400  0.161100  0.384700  1.0  0.1063
  H  H18  1  0.458700  0.273500  0.554300  1.0  0.1231
  H  H19  1  0.714100  0.926700  0.430300  1.0  0.1148
  H  H20  1  0.806300  0.036200  0.597200  1.0  0.0997
  H  H21  1  0.531000  0.367800  0.710600  1.0  0.1088
  H  H22  1  0.437600  0.524300  0.778300  1.0  0.1245
  H  H23  1  0.296700  0.692200  0.863000  1.0  0.0846
  H  H24  1  0.558500  0.698200  0.126800  1.0  0.0864
  H  H25  1  0.704200  0.535100  0.051300  1.0  0.1258
  H  H26  1  0.837800  0.387100  0.979500  1.0  0.1097
  H  H27  1  0.077100  0.324500  0.048900  1.0  0.1254
  H  H28  1  0.295500  0.235500  0.138900  1.0  0.1053
  H  H29  1  0.249800  0.967900  0.891300  1.0  0.1026
  H  H30  1  0.033000  0.055000  0.801800  1.0  0.0973
  C  C31  1  0.964300  0.720600  0.037000  1.0  0.6687
  C  C32  1  0.028100  0.610900  0.965500  1.0  -0.1233
  C  C33  1  0.952200  0.573000  0.864000  1.0  -0.0412
  C  C34  1  0.009500  0.469900  0.796100  1.0  -0.0988
  C  C35  1  0.141000  0.405100  0.833100  1.0  -0.0354
  C  C36  1  0.162700  0.545100  0.003900  1.0  -0.0885
  C  C37  1  0.216800  0.445300  0.938100  1.0  -0.0493
  C  C38  1  0.199400  0.294800  0.764200  1.0  0.2294
  C  C39  1  0.120200  0.249700  0.661300  1.0  -0.1717
  C  C40  1  0.172900  0.146400  0.602200  1.0  0.0624
  C  C41  1  0.086300  0.095000  0.493400  1.0  0.0947
  C  C42  1  0.964000  0.150300  0.442500  1.0  -0.2059
  C  C43  1  0.879400  0.098100  0.340300  1.0  0.1816
  C  C44  1  0.032000  0.944500  0.336700  1.0  0.1786
  C  C45  1  0.119800  0.989800  0.435600  1.0  -0.1939
  C  C46  1  0.302800  0.090900  0.649900  1.0  -0.1409
  C  C47  1  0.381600  0.138300  0.751500  1.0  0.2347
  C  C48  1  0.526600  0.082300  0.805100  1.0  -0.0232
  C  C49  1  0.608500  0.981900  0.746900  1.0  -0.1405
  C  C50  1  0.741800  0.928600  0.801000  1.0  -0.0492
  C  C51  1  0.792800  0.976000  0.907800  1.0  -0.1253
  C  C52  1  0.715100  0.076000  0.961000  1.0  -0.0241
  C  C53  1  0.582400  0.129800  0.908400  1.0  -0.0751
  C  C54  1  0.943500  0.922100  0.962700  1.0  0.6511
  C  C55  1  0.464300  0.963000  0.279400  1.0  0.6662
  C  C56  1  0.528100  0.034500  0.389100  1.0  -0.1265
  C  C57  1  0.452200  0.136000  0.427000  1.0  -0.0449
  C  C58  1  0.509500  0.203900  0.530100  1.0  -0.1131
  C  C59  1  0.641000  0.166900  0.594900  1.0  -0.0378
  C  C60  1  0.662700  0.996100  0.454900  1.0  -0.0884
  C  C61  1  0.716800  0.061900  0.554700  1.0  -0.0569
  C  C62  1  0.699400  0.235800  0.705200  1.0  0.2295
  C  C63  1  0.620200  0.338700  0.750300  1.0  -0.1717
  C  C64  1  0.672900  0.397800  0.853600  1.0  0.0637
  C  C65  1  0.586300  0.506600  0.905000  1.0  0.0965
  C  C66  1  0.464000  0.557500  0.849700  1.0  -0.2004
  C  C67  1  0.379400  0.659700  0.901900  1.0  0.1812
  C  C68  1  0.532000  0.663300  0.055500  1.0  0.1784
  C  C69  1  0.619800  0.564400  0.010200  1.0  -0.1954
  C  C70  1  0.802800  0.350100  0.909100  1.0  -0.1416
  C  C71  1  0.881600  0.248500  0.861700  1.0  0.2362
  C  C72  1  0.026600  0.194900  0.917700  1.0  -0.0252
  C  C73  1  0.108500  0.253100  0.018100  1.0  -0.1451
  C  C74  1  0.241800  0.199000  0.071400  1.0  -0.0531
  C  C75  1  0.292800  0.092200  0.024000  1.0  -0.1237
  C  C76  1  0.215100  0.039000  0.924000  1.0  -0.0248
  C  C77  1  0.082400  0.091600  0.870200  1.0  -0.0751
  C  C78  1  0.443500  0.037300  0.077900  1.0  0.6517
  N  N79  1  0.326900  0.238500  0.809300  1.0  -0.4195
  N  N80  1  0.911600  0.996400  0.287600  1.0  -0.3526
  N  N81  1  0.826900  0.190700  0.761500  1.0  -0.4169
  N  N82  1  0.411600  0.712400  0.003600  1.0  -0.3469
  O  O83  1  0.805700  0.760800  0.014200  1.0  -0.5545
  O  O84  1  0.082700  0.768500  0.114700  1.0  -0.6951
  O  O85  1  0.957800  0.959500  0.060700  1.0  -0.6457
  O  O86  1  0.053300  0.845900  0.912700  1.0  -0.5974
  O  O87  1  0.305700  0.985800  0.239200  1.0  -0.555
  O  O88  1  0.582700  0.885300  0.231500  1.0  -0.689
  O  O89  1  0.457800  0.939300  0.040500  1.0  -0.6424
  O  O90  1  0.553300  0.087300  0.154100  1.0  -0.5962
