# generated using pymatgen
data_MnH10(C7O3)2
_symmetry_space_group_name_H-M   'P 1'
_cell_length_a   9.53160000
_cell_length_b   12.82670000
_cell_length_c   15.85370000
_cell_angle_alpha   66.13810000
_cell_angle_beta   89.11590000
_cell_angle_gamma   87.81410000
_symmetry_Int_Tables_number   1
_chemical_formula_structural   MnH10(C7O3)2
_chemical_formula_sum   'Mn4 H40 C56 O24'
_cell_volume   1771.29115228
_cell_formula_units_Z   4
loop_
 _symmetry_equiv_pos_site_id
 _symmetry_equiv_pos_as_xyz
  1  'x, y, z'
loop_
 _atom_site_type_symbol
 _atom_site_label
 _atom_site_symmetry_multiplicity
 _atom_site_fract_x
 _atom_site_fract_y
 _atom_site_fract_z
 _atom_site_occupancy
 _atom_site_charge
  Mn  Mn1  1  0.500000  0.500000  0.000000  1.0  0.928
  Mn  Mn2  1  0.000000  0.500000  0.000000  1.0  0.928
  Mn  Mn3  1  0.250000  0.406200  0.187600  1.0  1.1381
  Mn  Mn4  1  0.750000  0.593800  0.812400  1.0  1.1404
  H  H5  1  0.108000  0.272000  0.964200  1.0  0.1118
  H  H6  1  0.150800  0.179900  0.061600  1.0  0.1008
  H  H7  1  0.336600  0.111200  0.141000  1.0  0.1211
  H  H8  1  0.375200  0.131600  0.843600  1.0  0.117
  H  H9  1  0.493300  0.965700  0.224800  1.0  0.0945
  H  H10  1  0.718600  0.263300  0.274000  1.0  0.1011
  H  H11  1  0.724800  0.209300  0.201600  1.0  0.1293
  H  H12  1  0.549000  0.283800  0.367000  1.0  0.1167
  H  H13  1  0.621500  0.913800  0.389600  1.0  0.114
  H  H14  1  0.431000  0.261900  0.502600  1.0  0.0977
  H  H15  1  0.392000  0.763800  0.964200  1.0  0.1114
  H  H16  1  0.349200  0.758500  0.061600  1.0  0.0983
  H  H17  1  0.163400  0.747800  0.141000  1.0  0.1207
  H  H18  1  0.124800  0.024800  0.843600  1.0  0.1162
  H  H19  1  0.006700  0.809500  0.224800  1.0  0.0936
  H  H20  1  0.781400  0.462700  0.274000  1.0  0.1009
  H  H21  1  0.775200  0.589100  0.201600  1.0  0.1299
  H  H22  1  0.951000  0.349200  0.367000  1.0  0.1156
  H  H23  1  0.878500  0.696600  0.389600  1.0  0.1142
  H  H24  1  0.069000  0.235500  0.502600  1.0  0.097
  H  H25  1  0.892000  0.728000  0.035800  1.0  0.1127
  H  H26  1  0.849200  0.820100  0.938400  1.0  0.0998
  H  H27  1  0.663400  0.888800  0.859000  1.0  0.1217
  H  H28  1  0.624800  0.868400  0.156400  1.0  0.1174
  H  H29  1  0.506700  0.034300  0.775200  1.0  0.0939
  H  H30  1  0.281400  0.736700  0.726000  1.0  0.1014
  H  H31  1  0.275200  0.790700  0.798400  1.0  0.1299
  H  H32  1  0.451000  0.716200  0.633000  1.0  0.1167
  H  H33  1  0.378500  0.086200  0.610400  1.0  0.1146
  H  H34  1  0.569000  0.738100  0.497400  1.0  0.0973
  H  H35  1  0.608000  0.236200  0.035800  1.0  0.1115
  H  H36  1  0.650800  0.241500  0.938400  1.0  0.1011
  H  H37  1  0.836600  0.252200  0.859000  1.0  0.1213
  H  H38  1  0.875200  0.975200  0.156400  1.0  0.1172
  H  H39  1  0.993300  0.190500  0.775200  1.0  0.0933
  H  H40  1  0.218600  0.537300  0.726000  1.0  0.1
  H  H41  1  0.224800  0.410900  0.798400  1.0  0.1295
  H  H42  1  0.049000  0.650800  0.633000  1.0  0.116
  H  H43  1  0.121500  0.303400  0.610400  1.0  0.1138
  H  H44  1  0.931000  0.764500  0.497400  1.0  0.0967
  C  C45  1  0.186900  0.238180  0.005440  1.0  -0.093
  C  C46  1  0.371000  0.101500  0.019500  1.0  0.2224
  C  C47  1  0.548200  0.306770  0.190460  1.0  0.6949
  C  C48  1  0.452100  0.044380  0.973640  1.0  -0.0272
  C  C49  1  0.251200  0.329660  0.028960  1.0  0.6868
  C  C50  1  0.388300  0.072540  0.111720  1.0  -0.2589
  C  C51  1  0.437800  0.073330  0.878540  1.0  -0.1403
  C  C52  1  0.483200  0.985020  0.161960  1.0  -0.0408
  C  C53  1  0.534200  0.005270  0.459260  1.0  -0.0117
  C  C54  1  0.663600  0.225030  0.244740  1.0  -0.0781
  C  C55  1  0.563200  0.117770  0.392660  1.0  0.231
  C  C56  1  0.527200  0.211290  0.409620  1.0  -0.2697
  C  C57  1  0.574500  0.906790  0.443420  1.0  -0.1545
  C  C58  1  0.456800  0.197480  0.492040  1.0  -0.0478
  C  C59  1  0.313100  0.756380  0.005440  1.0  -0.0918
  C  C60  1  0.129000  0.879000  0.019500  1.0  0.2213
  C  C61  1  0.951800  0.502770  0.190460  1.0  0.6933
  C  C62  1  0.047900  0.981980  0.973640  1.0  -0.0287
  C  C63  1  0.248800  0.641380  0.028960  1.0  0.6866
  C  C64  1  0.111700  0.815740  0.111720  1.0  -0.2581
  C  C65  1  0.062200  0.048130  0.878540  1.0  -0.1421
  C  C66  1  0.016800  0.853020  0.161960  1.0  -0.0439
  C  C67  1  0.965800  0.535470  0.459260  1.0  -0.0118
  C  C68  1  0.836400  0.530230  0.244740  1.0  -0.0776
  C  C69  1  0.936800  0.489570  0.392660  1.0  0.2306
  C  C70  1  0.972800  0.379090  0.409620  1.0  -0.2716
  C  C71  1  0.925500  0.649790  0.443420  1.0  -0.1519
  C  C72  1  0.043200  0.310480  0.492040  1.0  -0.0448
  C  C73  1  0.813100  0.761820  0.994560  1.0  -0.0915
  C  C74  1  0.629000  0.898500  0.980500  1.0  0.2225
  C  C75  1  0.451800  0.693230  0.809540  1.0  0.6941
  C  C76  1  0.547900  0.955620  0.026360  1.0  -0.0274
  C  C77  1  0.748800  0.670340  0.971040  1.0  0.6871
  C  C78  1  0.611700  0.927460  0.888280  1.0  -0.258
  C  C79  1  0.562200  0.926670  0.121460  1.0  -0.1425
  C  C80  1  0.516800  0.014980  0.838040  1.0  -0.0398
  C  C81  1  0.465800  0.994730  0.540740  1.0  -0.0116
  C  C82  1  0.336400  0.774970  0.755260  1.0  -0.0784
  C  C83  1  0.436800  0.882230  0.607340  1.0  0.2298
  C  C84  1  0.472800  0.788710  0.590380  1.0  -0.2711
  C  C85  1  0.425500  0.093210  0.556580  1.0  -0.1559
  C  C86  1  0.543200  0.802520  0.507960  1.0  -0.0507
  C  C87  1  0.686900  0.243620  0.994560  1.0  -0.0943
  C  C88  1  0.871000  0.121000  0.980500  1.0  0.2226
  C  C89  1  0.048200  0.497230  0.809540  1.0  0.6928
  C  C90  1  0.952100  0.018020  0.026360  1.0  -0.0266
  C  C91  1  0.751200  0.358620  0.971040  1.0  0.6861
  C  C92  1  0.888300  0.184260  0.888280  1.0  -0.2573
  C  C93  1  0.937800  0.951870  0.121460  1.0  -0.1419
  C  C94  1  0.983200  0.146980  0.838040  1.0  -0.037
  C  C95  1  0.034200  0.464530  0.540740  1.0  -0.0112
  C  C96  1  0.163600  0.469770  0.755260  1.0  -0.0794
  C  C97  1  0.063200  0.510430  0.607340  1.0  0.2302
  C  C98  1  0.027200  0.620910  0.590380  1.0  -0.2702
  C  C99  1  0.074500  0.350210  0.556580  1.0  -0.1512
  C  C100  1  0.956800  0.689520  0.507960  1.0  -0.0535
  O  O101  1  0.592190  0.393090  0.126220  1.0  -0.5647
  O  O102  1  0.371890  0.359190  0.004020  1.0  -0.5308
  O  O103  1  0.281950  0.185610  0.963340  1.0  -0.2339
  O  O104  1  0.169030  0.368810  0.074260  1.0  -0.6574
  O  O105  1  0.422650  0.283850  0.212140  1.0  -0.6235
  O  O106  1  0.623800  0.119550  0.313640  1.0  -0.2352
  O  O107  1  0.907810  0.480690  0.126220  1.0  -0.5664
  O  O108  1  0.128110  0.636790  0.004020  1.0  -0.5318
  O  O109  1  0.218050  0.851050  0.963340  1.0  -0.2349
  O  O110  1  0.330970  0.556930  0.074260  1.0  -0.6541
  O  O111  1  0.077350  0.504010  0.212140  1.0  -0.6218
  O  O112  1  0.876200  0.566810  0.313640  1.0  -0.2331
  O  O113  1  0.407810  0.606910  0.873780  1.0  -0.5654
  O  O114  1  0.628110  0.640810  0.995980  1.0  -0.5322
  O  O115  1  0.718050  0.814390  0.036660  1.0  -0.2356
  O  O116  1  0.830970  0.631190  0.925740  1.0  -0.6578
  O  O117  1  0.577350  0.716150  0.787860  1.0  -0.6229
  O  O118  1  0.376200  0.880450  0.686360  1.0  -0.2344
  O  O119  1  0.092190  0.519310  0.873780  1.0  -0.5673
  O  O120  1  0.871890  0.363210  0.995980  1.0  -0.5312
  O  O121  1  0.781950  0.148950  0.036660  1.0  -0.2363
  O  O122  1  0.669030  0.443070  0.925740  1.0  -0.6534
  O  O123  1  0.922650  0.495990  0.787860  1.0  -0.6217
  O  O124  1  0.123800  0.433190  0.686360  1.0  -0.2341
