# generated using pymatgen
data_Np(CO2)2
_symmetry_space_group_name_H-M   'P 1'
_cell_length_a   5.70700000
_cell_length_b   8.74900000
_cell_length_c   13.44200000
_cell_angle_alpha   90.00000000
_cell_angle_beta   90.00000000
_cell_angle_gamma   90.00000000
_symmetry_Int_Tables_number   1
_chemical_formula_structural   Np(CO2)2
_chemical_formula_sum   'Np4 C8 O16'
_cell_volume   671.16635901
_cell_formula_units_Z   4
loop_
 _symmetry_equiv_pos_site_id
 _symmetry_equiv_pos_as_xyz
  1  'x, y, z'
loop_
 _atom_site_type_symbol
 _atom_site_label
 _atom_site_symmetry_multiplicity
 _atom_site_fract_x
 _atom_site_fract_y
 _atom_site_fract_z
 _atom_site_occupancy
 _atom_site_charge
  Np  Np1  1  0.500000  0.673070  0.476820  1.0  2.0745
  Np  Np2  1  0.000000  0.326930  0.523180  1.0  2.0852
  Np  Np3  1  0.500000  0.826930  0.976820  1.0  2.082
  Np  Np4  1  0.000000  0.173070  0.023180  1.0  2.0771
  C  C5  1  0.495000  0.761300  0.235400  1.0  0.7181
  C  C6  1  0.341000  0.627000  0.230000  1.0  0.0308
  C  C7  1  0.995000  0.238700  0.764600  1.0  0.7177
  C  C8  1  0.841000  0.373000  0.770000  1.0  0.0339
  C  C9  1  0.495000  0.738700  0.735400  1.0  0.7183
  C  C10  1  0.341000  0.873000  0.730000  1.0  0.0322
  C  C11  1  0.995000  0.261300  0.264600  1.0  0.7187
  C  C12  1  0.841000  0.127000  0.270000  1.0  0.0341
  O  O13  1  0.732000  0.529500  0.471000  1.0  -0.8693
  O  O14  1  0.605000  0.788000  0.315400  1.0  -0.6447
  O  O15  1  0.548000  0.834800  0.155600  1.0  -0.6973
  O  O16  1  0.318000  0.567000  0.325400  1.0  -0.6203
  O  O17  1  0.232000  0.470500  0.529000  1.0  -0.8692
  O  O18  1  0.105000  0.212000  0.684600  1.0  -0.6435
  O  O19  1  0.048000  0.165200  0.844400  1.0  -0.6969
  O  O20  1  0.818000  0.433000  0.674600  1.0  -0.6205
  O  O21  1  0.732000  0.970500  0.971000  1.0  -0.8691
  O  O22  1  0.605000  0.712000  0.815400  1.0  -0.6434
  O  O23  1  0.548000  0.665200  0.655600  1.0  -0.6977
  O  O24  1  0.318000  0.933000  0.825400  1.0  -0.6203
  O  O25  1  0.232000  0.029500  0.029000  1.0  -0.8695
  O  O26  1  0.105000  0.288000  0.184600  1.0  -0.6436
  O  O27  1  0.048000  0.334800  0.344400  1.0  -0.6968
  O  O28  1  0.818000  0.067000  0.174600  1.0  -0.6205
