# generated using pymatgen
data_Mn2Ru3(CO3)6
_symmetry_space_group_name_H-M   'P 1'
_cell_length_a   13.61800000
_cell_length_b   13.66400000
_cell_length_c   16.95400000
_cell_angle_alpha   110.74000000
_cell_angle_beta   90.00000000
_cell_angle_gamma   90.00000000
_symmetry_Int_Tables_number   1
_chemical_formula_structural   Mn2Ru3(CO3)6
_chemical_formula_sum   'Mn8 Ru12 C24 O72'
_cell_volume   2950.30205208
_cell_formula_units_Z   4
loop_
 _symmetry_equiv_pos_site_id
 _symmetry_equiv_pos_as_xyz
  1  'x, y, z'
loop_
 _atom_site_type_symbol
 _atom_site_label
 _atom_site_symmetry_multiplicity
 _atom_site_fract_x
 _atom_site_fract_y
 _atom_site_fract_z
 _atom_site_occupancy
 _atom_site_charge
  Mn  Mn1  1  0.189440  0.771510  0.660340  1.0  1.1889
  Mn  Mn2  1  0.284310  0.333930  0.195120  1.0  1.2218
  Mn  Mn3  1  0.689440  0.228490  0.839660  1.0  1.1881
  Mn  Mn4  1  0.784310  0.666070  0.304880  1.0  1.2215
  Mn  Mn5  1  0.810560  0.228490  0.339660  1.0  1.1878
  Mn  Mn6  1  0.715690  0.666070  0.804880  1.0  1.2215
  Mn  Mn7  1  0.310560  0.771510  0.160340  1.0  1.188
  Mn  Mn8  1  0.215690  0.333930  0.695120  1.0  1.2216
  Ru  Ru9  1  0.526290  0.998380  0.436410  1.0  1.0887
  Ru  Ru10  1  0.077820  0.989220  0.475370  1.0  1.1059
  Ru  Ru11  1  0.502020  0.566950  0.475730  1.0  1.1111
  Ru  Ru12  1  0.026290  0.001620  0.063590  1.0  1.0878
  Ru  Ru13  1  0.577820  0.010780  0.024630  1.0  1.1054
  Ru  Ru14  1  0.002020  0.433050  0.024270  1.0  1.112
  Ru  Ru15  1  0.473710  0.001620  0.563590  1.0  1.089
  Ru  Ru16  1  0.922180  0.010780  0.524630  1.0  1.1077
  Ru  Ru17  1  0.497980  0.433050  0.524270  1.0  1.1121
  Ru  Ru18  1  0.973710  0.998380  0.936410  1.0  1.0907
  Ru  Ru19  1  0.422180  0.989220  0.975370  1.0  1.1079
  Ru  Ru20  1  0.997980  0.566950  0.975730  1.0  1.1111
  C  C21  1  0.507600  0.790700  0.446400  1.0  0.9254
  C  C22  1  0.314800  0.983300  0.445400  1.0  0.9105
  C  C23  1  0.955200  0.808200  0.395800  1.0  0.9185
  C  C24  1  0.052700  0.927600  0.620900  1.0  0.9163
  C  C25  1  0.371800  0.399000  0.378600  1.0  0.9408
  C  C26  1  0.651400  0.409300  0.399600  1.0  0.9505
  C  C27  1  0.007600  0.209300  0.053600  1.0  0.926
  C  C28  1  0.814800  0.016700  0.054600  1.0  0.9112
  C  C29  1  0.455200  0.191800  0.104200  1.0  0.9175
  C  C30  1  0.552700  0.072400  0.879100  1.0  0.9162
  C  C31  1  0.871800  0.601000  0.121400  1.0  0.9412
  C  C32  1  0.151400  0.590700  0.100400  1.0  0.9504
  C  C33  1  0.492400  0.209300  0.553600  1.0  0.926
  C  C34  1  0.685200  0.016700  0.554600  1.0  0.9109
  C  C35  1  0.044800  0.191800  0.604200  1.0  0.9175
  C  C36  1  0.947300  0.072400  0.379100  1.0  0.9164
  C  C37  1  0.628200  0.601000  0.621400  1.0  0.9407
  C  C38  1  0.348600  0.590700  0.600400  1.0  0.9508
  C  C39  1  0.992400  0.790700  0.946400  1.0  0.9254
  C  C40  1  0.185200  0.983300  0.945400  1.0  0.9101
  C  C41  1  0.544800  0.808200  0.895800  1.0  0.9185
  C  C42  1  0.447300  0.927600  0.120900  1.0  0.9166
  C  C43  1  0.128200  0.399000  0.878600  1.0  0.9405
  C  C44  1  0.848600  0.409300  0.899600  1.0  0.9511
  O  O45  1  0.531200  0.840300  0.396100  1.0  -0.6555
  O  O46  1  0.479900  0.842500  0.523300  1.0  -0.6006
  O  O47  1  0.511700  0.692000  0.417400  1.0  -0.6359
  O  O48  1  0.386100  0.988000  0.395700  1.0  -0.6033
  O  O49  1  0.332300  0.991300  0.522700  1.0  -0.6202
  O  O50  1  0.228600  0.970700  0.415600  1.0  -0.6164
  O  O51  1  0.045100  0.841600  0.398100  1.0  -0.5754
  O  O52  1  0.889900  0.864300  0.447000  1.0  -0.6284
  O  O53  1  0.932900  0.720600  0.340400  1.0  -0.6662
  O  O54  1  0.117200  0.936500  0.568500  1.0  -0.6288
  O  O55  1  0.962100  0.955700  0.616500  1.0  -0.5692
  O  O56  1  0.076000  0.891600  0.677800  1.0  -0.6631
  O  O57  1  0.405000  0.490200  0.383800  1.0  -0.6149
  O  O58  1  0.311600  0.349600  0.322200  1.0  -0.6884
  O  O59  1  0.401200  0.357000  0.432900  1.0  -0.5732
  O  O60  1  0.617000  0.498600  0.400300  1.0  -0.6241
  O  O61  1  0.611000  0.363700  0.446900  1.0  -0.6198
  O  O62  1  0.723700  0.367900  0.352500  1.0  -0.7022
  O  O63  1  0.031200  0.159700  0.103900  1.0  -0.651
  O  O64  1  0.979900  0.157500  0.976700  1.0  -0.5996
  O  O65  1  0.011700  0.308000  0.082600  1.0  -0.6373
  O  O66  1  0.886100  0.012000  0.104300  1.0  -0.6031
  O  O67  1  0.832300  0.008700  0.977300  1.0  -0.6195
  O  O68  1  0.728600  0.029300  0.084400  1.0  -0.617
  O  O69  1  0.545100  0.158400  0.101900  1.0  -0.5749
  O  O70  1  0.389900  0.135700  0.053000  1.0  -0.6293
  O  O71  1  0.432900  0.279400  0.159600  1.0  -0.6663
  O  O72  1  0.617200  0.063500  0.931500  1.0  -0.6277
  O  O73  1  0.462100  0.044300  0.883500  1.0  -0.5681
  O  O74  1  0.576000  0.108400  0.822200  1.0  -0.6547
  O  O75  1  0.905000  0.509800  0.116200  1.0  -0.615
  O  O76  1  0.811600  0.650400  0.177800  1.0  -0.6895
  O  O77  1  0.901200  0.643000  0.067100  1.0  -0.5753
  O  O78  1  0.117000  0.501400  0.099700  1.0  -0.6247
  O  O79  1  0.111000  0.636300  0.053100  1.0  -0.6198
  O  O80  1  0.223700  0.632100  0.147500  1.0  -0.7019
  O  O81  1  0.468800  0.159700  0.603900  1.0  -0.6499
  O  O82  1  0.520100  0.157500  0.476700  1.0  -0.602
  O  O83  1  0.488300  0.308000  0.582600  1.0  -0.6373
  O  O84  1  0.613900  0.012000  0.604300  1.0  -0.6031
  O  O85  1  0.667700  0.008700  0.477300  1.0  -0.6201
  O  O86  1  0.771400  0.029300  0.584400  1.0  -0.616
  O  O87  1  0.954900  0.158400  0.601900  1.0  -0.5762
  O  O88  1  0.110100  0.135700  0.553000  1.0  -0.6294
  O  O89  1  0.067100  0.279400  0.659600  1.0  -0.6664
  O  O90  1  0.882800  0.063500  0.431500  1.0  -0.6271
  O  O91  1  0.037900  0.044300  0.383500  1.0  -0.568
  O  O92  1  0.924000  0.108400  0.322200  1.0  -0.6547
  O  O93  1  0.595000  0.509800  0.616200  1.0  -0.6145
  O  O94  1  0.688400  0.650400  0.677800  1.0  -0.6891
  O  O95  1  0.598800  0.643000  0.567100  1.0  -0.5738
  O  O96  1  0.383000  0.501400  0.599700  1.0  -0.6244
  O  O97  1  0.389000  0.636300  0.553100  1.0  -0.6211
  O  O98  1  0.276300  0.632100  0.647500  1.0  -0.7003
  O  O99  1  0.968800  0.840300  0.896100  1.0  -0.6537
  O  O100  1  0.020100  0.842500  0.023300  1.0  -0.6017
  O  O101  1  0.988300  0.692000  0.917400  1.0  -0.6361
  O  O102  1  0.113900  0.988000  0.895700  1.0  -0.6037
  O  O103  1  0.167700  0.991300  0.022700  1.0  -0.6204
  O  O104  1  0.271400  0.970700  0.915600  1.0  -0.6159
  O  O105  1  0.454900  0.841600  0.898100  1.0  -0.5766
  O  O106  1  0.610100  0.864300  0.947000  1.0  -0.6289
  O  O107  1  0.567100  0.720600  0.840400  1.0  -0.6662
  O  O108  1  0.382800  0.936500  0.068500  1.0  -0.6281
  O  O109  1  0.537900  0.955700  0.116500  1.0  -0.5679
  O  O110  1  0.424000  0.891600  0.177800  1.0  -0.6633
  O  O111  1  0.095000  0.490200  0.883800  1.0  -0.6143
  O  O112  1  0.188400  0.349600  0.822200  1.0  -0.688
  O  O113  1  0.098800  0.357000  0.932900  1.0  -0.5728
  O  O114  1  0.883000  0.498600  0.900300  1.0  -0.6237
  O  O115  1  0.889000  0.363700  0.946900  1.0  -0.6202
  O  O116  1  0.776300  0.367900  0.852500  1.0  -0.7025
