# generated using pymatgen
data_CeH6C15NO9
_symmetry_space_group_name_H-M   'P 1'
_cell_length_a   14.21660000
_cell_length_b   14.21660000
_cell_length_c   15.83020000
_cell_angle_alpha   82.48300000
_cell_angle_beta   65.05750000
_cell_angle_gamma   112.62900000
_symmetry_Int_Tables_number   1
_chemical_formula_structural   CeH6C15NO9
_chemical_formula_sum   'Ce4 H24 C60 N4 O36'
_cell_volume   2508.17248636
_cell_formula_units_Z   4
loop_
 _symmetry_equiv_pos_site_id
 _symmetry_equiv_pos_as_xyz
  1  'x, y, z'
loop_
 _atom_site_type_symbol
 _atom_site_label
 _atom_site_symmetry_multiplicity
 _atom_site_fract_x
 _atom_site_fract_y
 _atom_site_fract_z
 _atom_site_occupancy
 _atom_site_charge
  Ce  Ce1  1  0.859280  0.359100  0.121500  1.0  2.2277
  Ce  Ce2  1  0.980600  0.980780  0.378500  1.0  2.2248
  Ce  Ce3  1  0.140720  0.640900  0.878500  1.0  2.2261
  Ce  Ce4  1  0.019400  0.019220  0.621500  1.0  2.2234
  H  H5  1  0.878400  0.165100  0.395700  1.0  0.1113
  H  H6  1  0.718600  0.349300  0.472300  1.0  0.1335
  H  H7  1  0.803800  0.222300  0.654900  1.0  0.1218
  H  H8  1  0.693700  0.267700  0.924000  1.0  0.1199
  H  H9  1  0.973200  0.544800  0.701200  1.0  0.0971
  H  H10  1  0.894600  0.507900  0.600300  1.0  0.142
  H  H11  1  0.060800  0.274100  0.104300  1.0  0.1115
  H  H12  1  0.321600  0.190900  0.027700  1.0  0.1331
  H  H13  1  0.377200  0.458700  0.845100  1.0  0.1204
  H  H14  1  0.691700  0.617700  0.576000  1.0  0.1181
  H  H15  1  0.746000  0.674400  0.798800  1.0  0.0957
  H  H16  1  0.608200  0.494900  0.899700  1.0  0.1407
  H  H17  1  0.121600  0.834900  0.604300  1.0  0.1104
  H  H18  1  0.281400  0.650700  0.527700  1.0  0.1337
  H  H19  1  0.196200  0.777700  0.345100  1.0  0.1221
  H  H20  1  0.306300  0.732300  0.076000  1.0  0.1196
  H  H21  1  0.026800  0.455200  0.298800  1.0  0.0973
  H  H22  1  0.105400  0.492100  0.399700  1.0  0.1416
  H  H23  1  0.939200  0.725900  0.895700  1.0  0.1122
  H  H24  1  0.678400  0.809100  0.972300  1.0  0.1342
  H  H25  1  0.622800  0.541300  0.154900  1.0  0.1199
  H  H26  1  0.308300  0.382300  0.424000  1.0  0.1181
  H  H27  1  0.254000  0.325600  0.201200  1.0  0.0965
  H  H28  1  0.391800  0.505100  0.100300  1.0  0.1411
  C  C29  1  0.846300  0.181500  0.530200  1.0  -0.1296
  C  C30  1  0.846400  0.197200  0.441200  1.0  -0.0501
  C  C31  1  0.798700  0.260500  0.419400  1.0  -0.0946
  C  C32  1  0.752500  0.307700  0.486000  1.0  -0.1251
  C  C33  1  0.756400  0.293400  0.572000  1.0  0.2622
  C  C34  1  0.802300  0.231100  0.595000  1.0  -0.1495
  C  C35  1  0.750300  0.362200  0.699500  1.0  0.2565
  C  C36  1  0.690300  0.291900  0.796400  1.0  -0.1208
  C  C37  1  0.735900  0.315800  0.857300  1.0  -0.0307
  C  C38  1  0.842200  0.408800  0.822000  1.0  -0.1685
  C  C39  1  0.900500  0.479900  0.725800  1.0  0.0193
  C  C40  1  0.854600  0.457500  0.665700  1.0  -0.2133
  C  C41  1  0.890000  0.111500  0.560500  1.0  0.7645
  C  C42  1  0.799800  0.279100  0.323500  1.0  0.6745
  C  C43  1  0.896600  0.430700  0.886300  1.0  0.7955
  C  C44  1  0.211700  0.376500  0.969800  1.0  -0.1287
  C  C45  1  0.138400  0.287600  0.058800  1.0  -0.0462
  C  C46  1  0.179900  0.218100  0.080600  1.0  -0.0907
  C  C47  1  0.293700  0.238500  0.014000  1.0  -0.1257
  C  C48  1  0.365400  0.328400  0.928000  1.0  0.2627
  C  C49  1  0.326100  0.397300  0.905000  1.0  -0.147
  C  C50  1  0.561700  0.449800  0.800500  1.0  0.2549
  C  C51  1  0.588300  0.486700  0.703600  1.0  -0.1228
  C  C52  1  0.673100  0.593200  0.642700  1.0  -0.0273
  C  C53  1  0.730800  0.664200  0.678000  1.0  -0.167
  C  C54  1  0.705700  0.626300  0.774200  1.0  0.0158
  C  C55  1  0.623200  0.520300  0.834300  1.0  -0.2136
  C  C56  1  0.172000  0.450500  0.939500  1.0  0.7657
  C  C57  1  0.102600  0.123300  0.176500  1.0  0.673
  C  C58  1  0.817000  0.782900  0.613700  1.0  0.7952
  C  C59  1  0.153700  0.818500  0.469800  1.0  -0.1292
  C  C60  1  0.153600  0.802800  0.558800  1.0  -0.0486
  C  C61  1  0.201300  0.739500  0.580600  1.0  -0.0957
  C  C62  1  0.247500  0.692300  0.514000  1.0  -0.1247
  C  C63  1  0.243600  0.706600  0.428000  1.0  0.2631
  C  C64  1  0.197700  0.768900  0.405000  1.0  -0.1488
  C  C65  1  0.249700  0.637800  0.300500  1.0  0.2569
  C  C66  1  0.309700  0.708100  0.203600  1.0  -0.1214
  C  C67  1  0.264100  0.684200  0.142700  1.0  -0.0287
  C  C68  1  0.157800  0.591200  0.178000  1.0  -0.1658
  C  C69  1  0.099500  0.520100  0.274200  1.0  0.0192
  C  C70  1  0.145400  0.542500  0.334300  1.0  -0.2127
  C  C71  1  0.110000  0.888500  0.439500  1.0  0.7649
  C  C72  1  0.200200  0.720900  0.676500  1.0  0.6787
  C  C73  1  0.103400  0.569300  0.113700  1.0  0.7951
  C  C74  1  0.788300  0.623500  0.030200  1.0  -0.1297
  C  C75  1  0.861600  0.712400  0.941200  1.0  -0.0471
  C  C76  1  0.820100  0.781900  0.919400  1.0  -0.0902
  C  C77  1  0.706300  0.761500  0.986000  1.0  -0.1268
  C  C78  1  0.634600  0.671600  0.072000  1.0  0.2632
  C  C79  1  0.673900  0.602700  0.095000  1.0  -0.1484
  C  C80  1  0.438300  0.550200  0.199500  1.0  0.2557
  C  C81  1  0.411700  0.513300  0.296400  1.0  -0.1219
  C  C82  1  0.326900  0.406800  0.357300  1.0  -0.0307
  C  C83  1  0.269200  0.335800  0.322000  1.0  -0.1681
  C  C84  1  0.294300  0.373700  0.225800  1.0  0.0149
  C  C85  1  0.376800  0.479700  0.165700  1.0  -0.2128
  C  C86  1  0.828000  0.549500  0.060500  1.0  0.7645
  C  C87  1  0.897400  0.876700  0.823500  1.0  0.6738
  C  C88  1  0.183000  0.217100  0.386300  1.0  0.7941
  N  N89  1  0.578600  0.190100  0.838500  1.0  0.621
  N  N90  1  0.528600  0.417100  0.661500  1.0  0.6276
  N  N91  1  0.421400  0.809900  0.161500  1.0  0.6225
  N  N92  1  0.471400  0.582900  0.338500  1.0  0.6272
  O  O93  1  0.897900  0.110900  0.636600  1.0  -0.6479
  O  O94  1  0.917970  0.054430  0.510600  1.0  -0.8444
  O  O95  1  0.847600  0.240400  0.261400  1.0  -0.6907
  O  O96  1  0.754450  0.333850  0.307100  1.0  -0.6543
  O  O97  1  0.549900  0.153600  0.782700  1.0  -0.354
  O  O98  1  0.518400  0.146300  0.928900  1.0  -0.3735
  O  O99  1  0.834900  0.369300  0.974800  1.0  -0.753
  O  O100  1  0.000100  0.509000  0.844300  1.0  -0.71
  O  O101  1  0.709400  0.343800  0.634400  1.0  -0.2441
  O  O102  1  0.247500  0.534500  0.863400  1.0  -0.6476
  O  O103  1  0.065030  0.428570  0.989400  1.0  -0.842
  O  O104  1  0.001800  0.109000  0.238600  1.0  -0.6833
  O  O105  1  0.140950  0.061550  0.192900  1.0  -0.6515
  O  O106  1  0.436300  0.332600  0.717300  1.0  -0.3523
  O  O107  1  0.575200  0.447300  0.571100  1.0  -0.377
  O  O108  1  0.844100  0.809700  0.525200  1.0  -0.7567
  O  O109  1  0.853300  0.844400  0.655700  1.0  -0.7101
  O  O110  1  0.478200  0.343800  0.865600  1.0  -0.2446
  O  O111  1  0.102100  0.889100  0.363400  1.0  -0.6461
  O  O112  1  0.082030  0.945570  0.489400  1.0  -0.8441
  O  O113  1  0.152400  0.759600  0.738600  1.0  -0.6877
  O  O114  1  0.245550  0.666150  0.692900  1.0  -0.6522
  O  O115  1  0.450100  0.846400  0.217300  1.0  -0.3559
  O  O116  1  0.481600  0.853700  0.071100  1.0  -0.3757
  O  O117  1  0.165100  0.630700  0.025200  1.0  -0.753
  O  O118  1  0.999900  0.491000  0.155700  1.0  -0.7111
  O  O119  1  0.290600  0.656200  0.365600  1.0  -0.2446
  O  O120  1  0.752500  0.465500  0.136600  1.0  -0.6495
  O  O121  1  0.934970  0.571430  0.010600  1.0  -0.8431
  O  O122  1  0.998200  0.891000  0.761400  1.0  -0.684
  O  O123  1  0.859050  0.938450  0.807100  1.0  -0.6507
  O  O124  1  0.563700  0.667400  0.282700  1.0  -0.3544
  O  O125  1  0.424800  0.552700  0.428900  1.0  -0.3757
  O  O126  1  0.155900  0.190300  0.474800  1.0  -0.7562
  O  O127  1  0.146700  0.155600  0.344300  1.0  -0.7088
  O  O128  1  0.521800  0.656200  0.134400  1.0  -0.2431
