# generated using pymatgen
data_NdH6C15NO9
_symmetry_space_group_name_H-M   'P 1'
_cell_length_a   23.64900000
_cell_length_b   15.76540000
_cell_length_c   16.21820000
_cell_angle_alpha   90.00000000
_cell_angle_beta   124.27200000
_cell_angle_gamma   90.00000000
_symmetry_Int_Tables_number   1
_chemical_formula_structural   NdH6C15NO9
_chemical_formula_sum   'Nd8 H48 C120 N8 O72'
_cell_volume   4996.85623585
_cell_formula_units_Z   8
loop_
 _symmetry_equiv_pos_site_id
 _symmetry_equiv_pos_as_xyz
  1  'x, y, z'
loop_
 _atom_site_type_symbol
 _atom_site_label
 _atom_site_symmetry_multiplicity
 _atom_site_fract_x
 _atom_site_fract_y
 _atom_site_fract_z
 _atom_site_occupancy
 _atom_site_charge
  Nd  Nd1  1  0.689310  0.328710  0.878630  1.0  2.2472
  Nd  Nd2  1  0.189310  0.828710  0.878630  1.0  2.2472
  Nd  Nd3  1  0.310690  0.328710  0.621370  1.0  2.2477
  Nd  Nd4  1  0.810690  0.828710  0.621370  1.0  2.2477
  Nd  Nd5  1  0.310690  0.671290  0.121370  1.0  2.2472
  Nd  Nd6  1  0.810690  0.171290  0.121370  1.0  2.2472
  Nd  Nd7  1  0.689310  0.671290  0.378630  1.0  2.2471
  Nd  Nd8  1  0.189310  0.171290  0.378630  1.0  2.2471
  H  H9  1  0.380700  0.162100  0.343700  1.0  0.1167
  H  H10  1  0.579200  0.230600  0.529000  1.0  0.1368
  H  H11  1  0.445600  0.280100  0.605200  1.0  0.1169
  H  H12  1  0.323000  0.056200  0.073800  1.0  0.1214
  H  H13  1  0.436800  0.890800  0.298600  1.0  0.0996
  H  H14  1  0.506600  0.000900  0.400100  1.0  0.1336
  H  H15  1  0.880700  0.662100  0.343700  1.0  0.1167
  H  H16  1  0.079200  0.730600  0.529000  1.0  0.1368
  H  H17  1  0.945600  0.780100  0.605200  1.0  0.1169
  H  H18  1  0.823000  0.556200  0.073800  1.0  0.1214
  H  H19  1  0.936800  0.390800  0.298600  1.0  0.0997
  H  H20  1  0.006600  0.500900  0.400100  1.0  0.1336
  H  H21  1  0.619300  0.162100  0.156300  1.0  0.1179
  H  H22  1  0.420800  0.230600  0.971000  1.0  0.1371
  H  H23  1  0.554400  0.280100  0.894800  1.0  0.1171
  H  H24  1  0.677000  0.056200  0.426200  1.0  0.1217
  H  H25  1  0.563200  0.890800  0.201400  1.0  0.1002
  H  H26  1  0.493400  0.000900  0.099900  1.0  0.1336
  H  H27  1  0.119300  0.662100  0.156300  1.0  0.1179
  H  H28  1  0.920800  0.730600  0.971000  1.0  0.1371
  H  H29  1  0.054400  0.780100  0.894800  1.0  0.1171
  H  H30  1  0.177000  0.556200  0.426200  1.0  0.1217
  H  H31  1  0.063200  0.390800  0.201400  1.0  0.1002
  H  H32  1  0.993400  0.500900  0.099900  1.0  0.1336
  H  H33  1  0.619300  0.837900  0.656300  1.0  0.1186
  H  H34  1  0.420800  0.769400  0.471000  1.0  0.1368
  H  H35  1  0.554400  0.719900  0.394800  1.0  0.1169
  H  H36  1  0.677000  0.943800  0.926200  1.0  0.1216
  H  H37  1  0.563200  0.109200  0.701400  1.0  0.1004
  H  H38  1  0.493400  0.999100  0.599900  1.0  0.1346
  H  H39  1  0.119300  0.337900  0.656300  1.0  0.1186
  H  H40  1  0.920800  0.269400  0.471000  1.0  0.1368
  H  H41  1  0.054400  0.219900  0.394800  1.0  0.1169
  H  H42  1  0.177000  0.443800  0.926200  1.0  0.1216
  H  H43  1  0.063200  0.609200  0.701400  1.0  0.1004
  H  H44  1  0.993400  0.499100  0.599900  1.0  0.1346
  H  H45  1  0.380700  0.837900  0.843700  1.0  0.1178
  H  H46  1  0.579200  0.769400  0.029000  1.0  0.1368
  H  H47  1  0.445600  0.719900  0.105200  1.0  0.1169
  H  H48  1  0.323000  0.943800  0.573800  1.0  0.1212
  H  H49  1  0.436800  0.109200  0.798600  1.0  0.0998
  H  H50  1  0.506600  0.999100  0.900100  1.0  0.1345
  H  H51  1  0.880700  0.337900  0.843700  1.0  0.1178
  H  H52  1  0.079200  0.269400  0.029000  1.0  0.1368
  H  H53  1  0.945600  0.219900  0.105200  1.0  0.1168
  H  H54  1  0.823000  0.443800  0.573800  1.0  0.1212
  H  H55  1  0.936800  0.609200  0.798600  1.0  0.0998
  H  H56  1  0.006600  0.499100  0.900100  1.0  0.1345
  C  C57  1  0.402100  0.222600  0.469700  1.0  -0.1372
  C  C58  1  0.416200  0.187600  0.404100  1.0  -0.1161
  C  C59  1  0.482300  0.190400  0.427700  1.0  0.2786
  C  C60  1  0.534300  0.227800  0.514600  1.0  -0.0842
  C  C61  1  0.520700  0.261500  0.581400  1.0  -0.1153
  C  C62  1  0.454700  0.258200  0.559300  1.0  -0.0476
  C  C63  1  0.454800  0.094700  0.299200  1.0  0.2153
  C  C64  1  0.401400  0.111000  0.201200  1.0  -0.0554
  C  C65  1  0.359900  0.044900  0.140600  1.0  -0.0603
  C  C66  1  0.371600  0.962700  0.176700  1.0  -0.1698
  C  C67  1  0.427200  0.947200  0.273700  1.0  0.004
  C  C68  1  0.468600  0.012600  0.334200  1.0  -0.1649
  C  C69  1  0.329400  0.220800  0.439200  1.0  0.7412
  C  C70  1  0.324400  0.892200  0.113100  1.0  0.7581
  C  C71  1  0.578200  0.298100  0.677400  1.0  0.6481
  C  C72  1  0.902100  0.722600  0.469700  1.0  -0.1372
  C  C73  1  0.916200  0.687600  0.404100  1.0  -0.1161
  C  C74  1  0.982300  0.690400  0.427700  1.0  0.2786
  C  C75  1  0.034300  0.727800  0.514600  1.0  -0.0842
  C  C76  1  0.020700  0.761500  0.581400  1.0  -0.1153
  C  C77  1  0.954700  0.758200  0.559300  1.0  -0.0476
  C  C78  1  0.954800  0.594700  0.299200  1.0  0.2153
  C  C79  1  0.901400  0.611000  0.201200  1.0  -0.0609
  C  C80  1  0.859900  0.544900  0.140600  1.0  -0.0603
  C  C81  1  0.871600  0.462700  0.176700  1.0  -0.1698
  C  C82  1  0.927200  0.447200  0.273700  1.0  0.004
  C  C83  1  0.968600  0.512600  0.334200  1.0  -0.1649
  C  C84  1  0.829400  0.720800  0.439200  1.0  0.7412
  C  C85  1  0.824400  0.392200  0.113100  1.0  0.7581
  C  C86  1  0.078200  0.798100  0.677400  1.0  0.6447
  C  C87  1  0.597900  0.222600  0.030300  1.0  -0.1376
  C  C88  1  0.583800  0.187600  0.095900  1.0  -0.1166
  C  C89  1  0.517700  0.190400  0.072300  1.0  0.2792
  C  C90  1  0.465700  0.227800  0.985400  1.0  -0.0876
  C  C91  1  0.479300  0.261500  0.918600  1.0  -0.1144
  C  C92  1  0.545300  0.258200  0.940700  1.0  -0.0499
  C  C93  1  0.545200  0.094700  0.200800  1.0  0.2166
  C  C94  1  0.598600  0.111000  0.298800  1.0  -0.055
  C  C95  1  0.640100  0.044900  0.359400  1.0  -0.0633
  C  C96  1  0.628400  0.962700  0.323300  1.0  -0.1698
  C  C97  1  0.572800  0.947200  0.226300  1.0  0.0044
  C  C98  1  0.531400  0.012600  0.165800  1.0  -0.1708
  C  C99  1  0.670600  0.220800  0.060800  1.0  0.7411
  C  C100  1  0.675600  0.892200  0.386900  1.0  0.739
  C  C101  1  0.421800  0.298100  0.822600  1.0  0.643
  C  C102  1  0.097900  0.722600  0.030300  1.0  -0.1376
  C  C103  1  0.083800  0.687600  0.095900  1.0  -0.1166
  C  C104  1  0.017700  0.690400  0.072300  1.0  0.2792
  C  C105  1  0.965700  0.727800  0.985400  1.0  -0.0876
  C  C106  1  0.979300  0.761500  0.918600  1.0  -0.1144
  C  C107  1  0.045300  0.758200  0.940700  1.0  -0.0499
  C  C108  1  0.045200  0.594700  0.200800  1.0  0.2166
  C  C109  1  0.098600  0.611000  0.298800  1.0  -0.0607
  C  C110  1  0.140100  0.544900  0.359400  1.0  -0.0633
  C  C111  1  0.128400  0.462700  0.323300  1.0  -0.1698
  C  C112  1  0.072800  0.447200  0.226300  1.0  0.0044
  C  C113  1  0.031400  0.512600  0.165800  1.0  -0.1708
  C  C114  1  0.170600  0.720800  0.060800  1.0  0.7411
  C  C115  1  0.175600  0.392200  0.386900  1.0  0.739
  C  C116  1  0.921800  0.798100  0.822600  1.0  0.643
  C  C117  1  0.597900  0.777400  0.530300  1.0  -0.1376
  C  C118  1  0.583800  0.812400  0.595900  1.0  -0.1168
  C  C119  1  0.517700  0.809600  0.572300  1.0  0.2884
  C  C120  1  0.465700  0.772200  0.485400  1.0  -0.0864
  C  C121  1  0.479300  0.738500  0.418600  1.0  -0.1136
  C  C122  1  0.545300  0.741800  0.440700  1.0  -0.0522
  C  C123  1  0.545200  0.905300  0.700800  1.0  0.2168
  C  C124  1  0.598600  0.889000  0.798800  1.0  -0.0565
  C  C125  1  0.640100  0.955100  0.859400  1.0  -0.0629
  C  C126  1  0.628400  0.037300  0.823300  1.0  -0.1705
  C  C127  1  0.572800  0.052800  0.726300  1.0  0.0051
  C  C128  1  0.531400  0.987400  0.665800  1.0  -0.17
  C  C129  1  0.670600  0.779200  0.560800  1.0  0.741
  C  C130  1  0.675600  0.107800  0.886900  1.0  0.7387
  C  C131  1  0.421800  0.701900  0.322600  1.0  0.6411
  C  C132  1  0.097900  0.277400  0.530300  1.0  -0.1376
  C  C133  1  0.083800  0.312400  0.595900  1.0  -0.1168
  C  C134  1  0.017700  0.309600  0.572300  1.0  0.2884
  C  C135  1  0.965700  0.272200  0.485400  1.0  -0.0864
  C  C136  1  0.979300  0.238500  0.418600  1.0  -0.1136
  C  C137  1  0.045300  0.241800  0.440700  1.0  -0.0522
  C  C138  1  0.045200  0.405300  0.700800  1.0  0.2168
  C  C139  1  0.098600  0.389000  0.798800  1.0  -0.0565
  C  C140  1  0.140100  0.455100  0.859400  1.0  -0.0629
  C  C141  1  0.128400  0.537300  0.823300  1.0  -0.1705
  C  C142  1  0.072800  0.552800  0.726300  1.0  0.0051
  C  C143  1  0.031400  0.487400  0.665800  1.0  -0.17
  C  C144  1  0.170600  0.279200  0.560800  1.0  0.741
  C  C145  1  0.175600  0.607800  0.886900  1.0  0.7387
  C  C146  1  0.921800  0.201900  0.322600  1.0  0.6411
  C  C147  1  0.402100  0.777400  0.969700  1.0  -0.138
  C  C148  1  0.416200  0.812400  0.904100  1.0  -0.1161
  C  C149  1  0.482300  0.809600  0.927700  1.0  0.2875
  C  C150  1  0.534300  0.772200  0.014600  1.0  -0.0831
  C  C151  1  0.520700  0.738500  0.081400  1.0  -0.1148
  C  C152  1  0.454700  0.741800  0.059300  1.0  -0.0537
  C  C153  1  0.454800  0.905300  0.799200  1.0  0.2159
  C  C154  1  0.401400  0.889000  0.701200  1.0  -0.0569
  C  C155  1  0.359900  0.955100  0.640600  1.0  -0.0601
  C  C156  1  0.371600  0.037300  0.676700  1.0  -0.1693
  C  C157  1  0.427200  0.052800  0.773700  1.0  0.0049
  C  C158  1  0.468600  0.987400  0.834200  1.0  -0.166
  C  C159  1  0.329400  0.779200  0.939200  1.0  0.7411
  C  C160  1  0.324400  0.107800  0.613100  1.0  0.7445
  C  C161  1  0.578200  0.701900  0.177400  1.0  0.6454
  C  C162  1  0.902100  0.277400  0.969700  1.0  -0.138
  C  C163  1  0.916200  0.312400  0.904100  1.0  -0.1161
  C  C164  1  0.982300  0.309600  0.927700  1.0  0.2875
  C  C165  1  0.034300  0.272200  0.014600  1.0  -0.0831
  C  C166  1  0.020700  0.238500  0.081400  1.0  -0.1148
  C  C167  1  0.954700  0.241800  0.059300  1.0  -0.0537
  C  C168  1  0.954800  0.405300  0.799200  1.0  0.2159
  C  C169  1  0.901400  0.389000  0.701200  1.0  -0.0569
  C  C170  1  0.859900  0.455100  0.640600  1.0  -0.0601
  C  C171  1  0.871600  0.537300  0.676700  1.0  -0.1693
  C  C172  1  0.927200  0.552800  0.773700  1.0  0.0049
  C  C173  1  0.968600  0.487400  0.834200  1.0  -0.166
  C  C174  1  0.829400  0.279200  0.939200  1.0  0.7411
  C  C175  1  0.824400  0.607800  0.613100  1.0  0.7445
  C  C176  1  0.078200  0.201900  0.177400  1.0  0.6448
  N  N177  1  0.384600  0.196200  0.158200  1.0  0.6196
  N  N178  1  0.884600  0.696200  0.158200  1.0  0.6196
  N  N179  1  0.615400  0.196200  0.341800  1.0  0.6193
  N  N180  1  0.115400  0.696200  0.341800  1.0  0.6193
  N  N181  1  0.615400  0.803800  0.841800  1.0  0.6204
  N  N182  1  0.115400  0.303800  0.841800  1.0  0.6204
  N  N183  1  0.384600  0.803800  0.658200  1.0  0.6159
  N  N184  1  0.884600  0.303800  0.658200  1.0  0.6159
  O  O185  1  0.312200  0.260500  0.489900  1.0  -0.8396
  O  O186  1  0.286840  0.179000  0.363000  1.0  -0.6465
  O  O187  1  0.407500  0.257200  0.213700  1.0  -0.3556
  O  O188  1  0.348300  0.202700  0.067200  1.0  -0.3885
  O  O189  1  0.279620  0.909100  0.023400  1.0  -0.7116
  O  O190  1  0.333200  0.822400  0.156100  1.0  -0.7034
  O  O191  1  0.637040  0.301100  0.694700  1.0  -0.6981
  O  O192  1  0.566530  0.324000  0.740700  1.0  -0.6845
  O  O193  1  0.498920  0.158000  0.364100  1.0  -0.2448
  O  O194  1  0.812200  0.760500  0.489900  1.0  -0.8396
  O  O195  1  0.786840  0.679000  0.363000  1.0  -0.6465
  O  O196  1  0.907500  0.757200  0.213700  1.0  -0.3556
  O  O197  1  0.848300  0.702700  0.067200  1.0  -0.3885
  O  O198  1  0.779620  0.409100  0.023400  1.0  -0.7116
  O  O199  1  0.833200  0.322400  0.156100  1.0  -0.7034
  O  O200  1  0.137040  0.801100  0.694700  1.0  -0.6981
  O  O201  1  0.066530  0.824000  0.740700  1.0  -0.6867
  O  O202  1  0.998920  0.658000  0.364100  1.0  -0.2448
  O  O203  1  0.687800  0.260500  0.010100  1.0  -0.8386
  O  O204  1  0.713160  0.179000  0.137000  1.0  -0.6467
  O  O205  1  0.592500  0.257200  0.286300  1.0  -0.3541
  O  O206  1  0.651700  0.202700  0.432800  1.0  -0.3885
  O  O207  1  0.720380  0.909100  0.476600  1.0  -0.713
  O  O208  1  0.666800  0.822400  0.343900  1.0  -0.7025
  O  O209  1  0.362960  0.301100  0.805300  1.0  -0.692
  O  O210  1  0.433470  0.324000  0.759300  1.0  -0.6843
  O  O211  1  0.501080  0.158000  0.135900  1.0  -0.2429
  O  O212  1  0.187800  0.760500  0.010100  1.0  -0.8386
  O  O213  1  0.213160  0.679000  0.137000  1.0  -0.6467
  O  O214  1  0.092500  0.757200  0.286300  1.0  -0.3541
  O  O215  1  0.151700  0.702700  0.432800  1.0  -0.3885
  O  O216  1  0.220380  0.409100  0.476600  1.0  -0.713
  O  O217  1  0.166800  0.322400  0.343900  1.0  -0.7025
  O  O218  1  0.862960  0.801100  0.805300  1.0  -0.692
  O  O219  1  0.933470  0.824000  0.759300  1.0  -0.6843
  O  O220  1  0.001080  0.658000  0.135900  1.0  -0.2429
  O  O221  1  0.687800  0.739500  0.510100  1.0  -0.8372
  O  O222  1  0.713160  0.821000  0.637000  1.0  -0.646
  O  O223  1  0.592500  0.742800  0.786300  1.0  -0.3544
  O  O224  1  0.651700  0.797300  0.932800  1.0  -0.3897
  O  O225  1  0.720380  0.090900  0.976600  1.0  -0.712
  O  O226  1  0.666800  0.177600  0.843900  1.0  -0.7025
  O  O227  1  0.362960  0.698900  0.305300  1.0  -0.6906
  O  O228  1  0.433470  0.676000  0.259300  1.0  -0.6849
  O  O229  1  0.501080  0.842000  0.635900  1.0  -0.2443
  O  O230  1  0.187800  0.239500  0.510100  1.0  -0.8372
  O  O231  1  0.213160  0.321000  0.637000  1.0  -0.646
  O  O232  1  0.092500  0.242800  0.786300  1.0  -0.3544
  O  O233  1  0.151700  0.297300  0.932800  1.0  -0.3897
  O  O234  1  0.220380  0.590900  0.976600  1.0  -0.712
  O  O235  1  0.166800  0.677600  0.843900  1.0  -0.7025
  O  O236  1  0.862960  0.198900  0.305300  1.0  -0.6906
  O  O237  1  0.933470  0.176000  0.259300  1.0  -0.6849
  O  O238  1  0.001080  0.342000  0.635900  1.0  -0.2443
  O  O239  1  0.312200  0.739500  0.989900  1.0  -0.838
  O  O240  1  0.286840  0.821000  0.863000  1.0  -0.6437
  O  O241  1  0.407500  0.742800  0.713700  1.0  -0.3545
  O  O242  1  0.348300  0.797300  0.567200  1.0  -0.3874
  O  O243  1  0.279620  0.090900  0.523400  1.0  -0.7118
  O  O244  1  0.333200  0.177600  0.656100  1.0  -0.7037
  O  O245  1  0.637040  0.698900  0.194700  1.0  -0.694
  O  O246  1  0.566530  0.676000  0.240700  1.0  -0.6881
  O  O247  1  0.498920  0.842000  0.864100  1.0  -0.2458
  O  O248  1  0.812200  0.239500  0.989900  1.0  -0.838
  O  O249  1  0.786840  0.321000  0.863000  1.0  -0.6437
  O  O250  1  0.907500  0.242800  0.713700  1.0  -0.3545
  O  O251  1  0.848300  0.297300  0.567200  1.0  -0.3874
  O  O252  1  0.779620  0.590900  0.523400  1.0  -0.7118
  O  O253  1  0.833200  0.677600  0.656100  1.0  -0.7037
  O  O254  1  0.137040  0.198900  0.194700  1.0  -0.694
  O  O255  1  0.066530  0.176000  0.240700  1.0  -0.6867
  O  O256  1  0.998920  0.342000  0.864100  1.0  -0.2458
