# generated using pymatgen
data_PrH6C15NO9
_symmetry_space_group_name_H-M   'P 1'
_cell_length_a   23.70460000
_cell_length_b   15.79870000
_cell_length_c   16.23980000
_cell_angle_alpha   90.00000000
_cell_angle_beta   124.20400000
_cell_angle_gamma   90.00000000
_symmetry_Int_Tables_number   1
_chemical_formula_structural   PrH6C15NO9
_chemical_formula_sum   'Pr8 H48 C120 N8 O72'
_cell_volume   5029.92922307
_cell_formula_units_Z   8
loop_
 _symmetry_equiv_pos_site_id
 _symmetry_equiv_pos_as_xyz
  1  'x, y, z'
loop_
 _atom_site_type_symbol
 _atom_site_label
 _atom_site_symmetry_multiplicity
 _atom_site_fract_x
 _atom_site_fract_y
 _atom_site_fract_z
 _atom_site_occupancy
 _atom_site_charge
  Pr  Pr1  1  0.810850  0.829300  0.621460  1.0  2.1716
  Pr  Pr2  1  0.310850  0.329300  0.621460  1.0  2.1716
  Pr  Pr3  1  0.189150  0.829300  0.878540  1.0  2.1711
  Pr  Pr4  1  0.689150  0.329300  0.878540  1.0  2.1711
  Pr  Pr5  1  0.189150  0.170700  0.378540  1.0  2.171
  Pr  Pr6  1  0.689150  0.670700  0.378540  1.0  2.171
  Pr  Pr7  1  0.810850  0.170700  0.121460  1.0  2.1713
  Pr  Pr8  1  0.310850  0.670700  0.121460  1.0  2.1713
  H  H9  1  0.176600  0.556200  0.425900  1.0  0.1201
  H  H10  1  0.993300  0.500200  0.099500  1.0  0.139
  H  H11  1  0.063400  0.390500  0.201100  1.0  0.0967
  H  H12  1  0.119100  0.661000  0.155700  1.0  0.1117
  H  H13  1  0.054300  0.780200  0.895300  1.0  0.1142
  H  H14  1  0.920800  0.730300  0.971500  1.0  0.1335
  H  H15  1  0.676600  0.056200  0.425900  1.0  0.1201
  H  H16  1  0.493300  0.000200  0.099500  1.0  0.139
  H  H17  1  0.563400  0.890500  0.201100  1.0  0.0967
  H  H18  1  0.619100  0.161000  0.155700  1.0  0.1117
  H  H19  1  0.554300  0.280200  0.895300  1.0  0.1142
  H  H20  1  0.420800  0.230300  0.971500  1.0  0.1335
  H  H21  1  0.823400  0.556200  0.074100  1.0  0.1198
  H  H22  1  0.006700  0.500200  0.400500  1.0  0.1391
  H  H23  1  0.936600  0.390500  0.298900  1.0  0.0961
  H  H24  1  0.880900  0.661000  0.344300  1.0  0.1117
  H  H25  1  0.945700  0.780200  0.604700  1.0  0.1144
  H  H26  1  0.079200  0.730300  0.528500  1.0  0.1333
  H  H27  1  0.323400  0.056200  0.074100  1.0  0.1198
  H  H28  1  0.506700  0.000200  0.400500  1.0  0.1391
  H  H29  1  0.436600  0.890500  0.298900  1.0  0.0961
  H  H30  1  0.380900  0.161000  0.344300  1.0  0.1117
  H  H31  1  0.445700  0.280200  0.604700  1.0  0.1144
  H  H32  1  0.579200  0.230300  0.528500  1.0  0.1333
  H  H33  1  0.823400  0.443800  0.574100  1.0  0.1196
  H  H34  1  0.006700  0.499800  0.900500  1.0  0.1389
  H  H35  1  0.936600  0.609500  0.798900  1.0  0.0964
  H  H36  1  0.880900  0.339000  0.844300  1.0  0.1116
  H  H37  1  0.945700  0.219800  0.104700  1.0  0.1143
  H  H38  1  0.079200  0.269700  0.028500  1.0  0.1332
  H  H39  1  0.323400  0.943800  0.574100  1.0  0.1196
  H  H40  1  0.506700  0.999800  0.900500  1.0  0.1389
  H  H41  1  0.436600  0.109500  0.798900  1.0  0.0964
  H  H42  1  0.380900  0.839000  0.844300  1.0  0.1116
  H  H43  1  0.445700  0.719800  0.104700  1.0  0.1143
  H  H44  1  0.579200  0.769700  0.028500  1.0  0.1332
  H  H45  1  0.176600  0.443800  0.925900  1.0  0.1199
  H  H46  1  0.993300  0.499800  0.599500  1.0  0.1392
  H  H47  1  0.063400  0.609500  0.701100  1.0  0.097
  H  H48  1  0.119100  0.339000  0.655700  1.0  0.1114
  H  H49  1  0.054300  0.219800  0.395300  1.0  0.115
  H  H50  1  0.920800  0.269700  0.471500  1.0  0.1332
  H  H51  1  0.676600  0.943800  0.925900  1.0  0.1199
  H  H52  1  0.493300  0.999800  0.599500  1.0  0.1392
  H  H53  1  0.563400  0.109500  0.701100  1.0  0.097
  H  H54  1  0.619100  0.839000  0.655700  1.0  0.1114
  H  H55  1  0.554300  0.719800  0.395300  1.0  0.115
  H  H56  1  0.420800  0.769700  0.471500  1.0  0.1332
  C  C57  1  0.127800  0.463100  0.322500  1.0  -0.1488
  C  C58  1  0.139900  0.545000  0.359100  1.0  -0.081
  C  C59  1  0.098300  0.610800  0.298000  1.0  0.0146
  C  C60  1  0.044100  0.594700  0.200100  1.0  0.2408
  C  C61  1  0.031100  0.512000  0.165300  1.0  -0.162
  C  C62  1  0.072600  0.446900  0.225700  1.0  -0.0043
  C  C63  1  0.018000  0.690300  0.072900  1.0  0.2472
  C  C64  1  0.083700  0.687000  0.095800  1.0  -0.1056
  C  C65  1  0.097660  0.722100  0.030600  1.0  -0.1373
  C  C66  1  0.045220  0.758100  0.941200  1.0  -0.0457
  C  C67  1  0.979280  0.761300  0.919500  1.0  -0.1025
  C  C68  1  0.965510  0.727600  0.985800  1.0  -0.0971
  C  C69  1  0.175800  0.392400  0.386800  1.0  0.756
  C  C70  1  0.170120  0.719900  0.060800  1.0  0.7416
  C  C71  1  0.921940  0.798700  0.823300  1.0  0.6447
  C  C72  1  0.627800  0.963100  0.322500  1.0  -0.1488
  C  C73  1  0.639900  0.045000  0.359100  1.0  -0.081
  C  C74  1  0.598300  0.110800  0.298000  1.0  0.0146
  C  C75  1  0.544100  0.094700  0.200100  1.0  0.2408
  C  C76  1  0.531100  0.012000  0.165300  1.0  -0.162
  C  C77  1  0.572600  0.946900  0.225700  1.0  -0.0043
  C  C78  1  0.518000  0.190300  0.072900  1.0  0.2472
  C  C79  1  0.583700  0.187000  0.095800  1.0  -0.1056
  C  C80  1  0.597660  0.222100  0.030600  1.0  -0.1373
  C  C81  1  0.545220  0.258100  0.941200  1.0  -0.0457
  C  C82  1  0.479280  0.261300  0.919500  1.0  -0.1025
  C  C83  1  0.465510  0.227600  0.985800  1.0  -0.0971
  C  C84  1  0.675800  0.892400  0.386800  1.0  0.756
  C  C85  1  0.670120  0.219900  0.060800  1.0  0.7416
  C  C86  1  0.421940  0.298700  0.823300  1.0  0.6447
  C  C87  1  0.872200  0.463100  0.177500  1.0  -0.1495
  C  C88  1  0.860100  0.545000  0.140900  1.0  -0.0771
  C  C89  1  0.901700  0.610800  0.202000  1.0  0.0162
  C  C90  1  0.955900  0.594700  0.299900  1.0  0.2389
  C  C91  1  0.968900  0.512000  0.334700  1.0  -0.1611
  C  C92  1  0.927400  0.446900  0.274300  1.0  -0.0045
  C  C93  1  0.982000  0.690300  0.427100  1.0  0.2461
  C  C94  1  0.916300  0.687000  0.404200  1.0  -0.1048
  C  C95  1  0.902340  0.722100  0.469400  1.0  -0.1369
  C  C96  1  0.954780  0.758100  0.558800  1.0  -0.0462
  C  C97  1  0.020720  0.761300  0.580500  1.0  -0.1034
  C  C98  1  0.034490  0.727600  0.514200  1.0  -0.0947
  C  C99  1  0.824200  0.392400  0.113200  1.0  0.7586
  C  C100  1  0.829880  0.719900  0.439200  1.0  0.7417
  C  C101  1  0.078060  0.798700  0.676700  1.0  0.6455
  C  C102  1  0.372200  0.963100  0.177500  1.0  -0.1495
  C  C103  1  0.360100  0.045000  0.140900  1.0  -0.0771
  C  C104  1  0.401700  0.110800  0.202000  1.0  0.0162
  C  C105  1  0.455900  0.094700  0.299900  1.0  0.2389
  C  C106  1  0.468900  0.012000  0.334700  1.0  -0.1611
  C  C107  1  0.427400  0.946900  0.274300  1.0  -0.0045
  C  C108  1  0.482000  0.190300  0.427100  1.0  0.2461
  C  C109  1  0.416300  0.187000  0.404200  1.0  -0.1048
  C  C110  1  0.402340  0.222100  0.469400  1.0  -0.1369
  C  C111  1  0.454780  0.258100  0.558800  1.0  -0.0462
  C  C112  1  0.520720  0.261300  0.580500  1.0  -0.1034
  C  C113  1  0.534490  0.227600  0.514200  1.0  -0.0947
  C  C114  1  0.324200  0.892400  0.113200  1.0  0.7586
  C  C115  1  0.329880  0.219900  0.439200  1.0  0.7417
  C  C116  1  0.578060  0.298700  0.676700  1.0  0.6455
  C  C117  1  0.872200  0.536900  0.677500  1.0  -0.1492
  C  C118  1  0.860100  0.455000  0.640900  1.0  -0.0768
  C  C119  1  0.901700  0.389200  0.702000  1.0  0.0165
  C  C120  1  0.955900  0.405300  0.799900  1.0  0.2391
  C  C121  1  0.968900  0.488000  0.834700  1.0  -0.1612
  C  C122  1  0.927400  0.553100  0.774300  1.0  -0.0043
  C  C123  1  0.982000  0.309700  0.927100  1.0  0.2459
  C  C124  1  0.916300  0.313000  0.904200  1.0  -0.1048
  C  C125  1  0.902340  0.277900  0.969400  1.0  -0.1379
  C  C126  1  0.954780  0.241900  0.058800  1.0  -0.0459
  C  C127  1  0.020720  0.238700  0.080500  1.0  -0.1025
  C  C128  1  0.034490  0.272400  0.014200  1.0  -0.0945
  C  C129  1  0.824200  0.607600  0.613200  1.0  0.7596
  C  C130  1  0.829880  0.280100  0.939200  1.0  0.7418
  C  C131  1  0.078060  0.201300  0.176700  1.0  0.6472
  C  C132  1  0.372200  0.036900  0.677500  1.0  -0.1492
  C  C133  1  0.360100  0.955000  0.640900  1.0  -0.0768
  C  C134  1  0.401700  0.889200  0.702000  1.0  0.0165
  C  C135  1  0.455900  0.905300  0.799900  1.0  0.2391
  C  C136  1  0.468900  0.988000  0.834700  1.0  -0.1612
  C  C137  1  0.427400  0.053100  0.774300  1.0  -0.0043
  C  C138  1  0.482000  0.809700  0.927100  1.0  0.2459
  C  C139  1  0.416300  0.813000  0.904200  1.0  -0.1048
  C  C140  1  0.402340  0.777900  0.969400  1.0  -0.1379
  C  C141  1  0.454780  0.741900  0.058800  1.0  -0.0459
  C  C142  1  0.520720  0.738700  0.080500  1.0  -0.1025
  C  C143  1  0.534490  0.772400  0.014200  1.0  -0.0945
  C  C144  1  0.324200  0.107600  0.613200  1.0  0.7596
  C  C145  1  0.329880  0.780100  0.939200  1.0  0.7418
  C  C146  1  0.578060  0.701300  0.176700  1.0  0.6472
  C  C147  1  0.127800  0.536900  0.822500  1.0  -0.1495
  C  C148  1  0.139900  0.455000  0.859100  1.0  -0.0805
  C  C149  1  0.098300  0.389200  0.798000  1.0  0.0149
  C  C150  1  0.044100  0.405300  0.700100  1.0  0.241
  C  C151  1  0.031100  0.488000  0.665300  1.0  -0.1618
  C  C152  1  0.072600  0.553100  0.725700  1.0  -0.0051
  C  C153  1  0.018000  0.309700  0.572900  1.0  0.2468
  C  C154  1  0.083700  0.313000  0.595800  1.0  -0.1058
  C  C155  1  0.097660  0.277900  0.530600  1.0  -0.1374
  C  C156  1  0.045220  0.241900  0.441200  1.0  -0.0458
  C  C157  1  0.979280  0.238700  0.419500  1.0  -0.1016
  C  C158  1  0.965510  0.272400  0.485800  1.0  -0.0964
  C  C159  1  0.175800  0.607600  0.886800  1.0  0.7563
  C  C160  1  0.170120  0.280100  0.560800  1.0  0.7416
  C  C161  1  0.921940  0.201300  0.323300  1.0  0.6448
  C  C162  1  0.627800  0.036900  0.822500  1.0  -0.1495
  C  C163  1  0.639900  0.955000  0.859100  1.0  -0.0805
  C  C164  1  0.598300  0.889200  0.798000  1.0  0.0149
  C  C165  1  0.544100  0.905300  0.700100  1.0  0.241
  C  C166  1  0.531100  0.988000  0.665300  1.0  -0.1618
  C  C167  1  0.572600  0.053100  0.725700  1.0  -0.0051
  C  C168  1  0.518000  0.809700  0.572900  1.0  0.2468
  C  C169  1  0.583700  0.813000  0.595800  1.0  -0.1058
  C  C170  1  0.597660  0.777900  0.530600  1.0  -0.1374
  C  C171  1  0.545220  0.741900  0.441200  1.0  -0.0458
  C  C172  1  0.479280  0.738700  0.419500  1.0  -0.1016
  C  C173  1  0.465510  0.772400  0.485800  1.0  -0.0964
  C  C174  1  0.675800  0.107600  0.886800  1.0  0.7563
  C  C175  1  0.670120  0.780100  0.560800  1.0  0.7416
  C  C176  1  0.421940  0.701300  0.323300  1.0  0.6448
  N  N177  1  0.114500  0.695900  0.340400  1.0  0.6149
  N  N178  1  0.614500  0.195900  0.340400  1.0  0.6149
  N  N179  1  0.885500  0.695900  0.159600  1.0  0.6158
  N  N180  1  0.385500  0.195900  0.159600  1.0  0.6158
  N  N181  1  0.885500  0.304100  0.659600  1.0  0.6119
  N  N182  1  0.385500  0.804100  0.659600  1.0  0.6119
  N  N183  1  0.114500  0.304100  0.840400  1.0  0.615
  N  N184  1  0.614500  0.804100  0.840400  1.0  0.615
  O  O185  1  0.166840  0.322850  0.343600  1.0  -0.7168
  O  O186  1  0.220420  0.409420  0.476000  1.0  -0.724
  O  O187  1  0.151000  0.702300  0.431500  1.0  -0.3931
  O  O188  1  0.091800  0.756900  0.285400  1.0  -0.3609
  O  O189  1  0.212660  0.678200  0.136900  1.0  -0.6463
  O  O190  1  0.187340  0.759440  0.010500  1.0  -0.842
  O  O191  1  0.933900  0.824670  0.760700  1.0  -0.6823
  O  O192  1  0.863390  0.801750  0.806480  1.0  -0.6505
  O  O193  1  0.000740  0.657200  0.135400  1.0  -0.2484
  O  O194  1  0.666840  0.822850  0.343600  1.0  -0.7168
  O  O195  1  0.720420  0.909420  0.476000  1.0  -0.724
  O  O196  1  0.651000  0.202300  0.431500  1.0  -0.3931
  O  O197  1  0.591800  0.256900  0.285400  1.0  -0.3609
  O  O198  1  0.712660  0.178200  0.136900  1.0  -0.6465
  O  O199  1  0.687340  0.259440  0.010500  1.0  -0.842
  O  O200  1  0.433900  0.324670  0.760700  1.0  -0.6823
  O  O201  1  0.363390  0.301750  0.806480  1.0  -0.6505
  O  O202  1  0.500740  0.157200  0.135400  1.0  -0.2484
  O  O203  1  0.833160  0.322850  0.156400  1.0  -0.7184
  O  O204  1  0.779580  0.409420  0.024000  1.0  -0.7219
  O  O205  1  0.849000  0.702300  0.068500  1.0  -0.3936
  O  O206  1  0.908200  0.756900  0.214600  1.0  -0.3631
  O  O207  1  0.787340  0.678200  0.363100  1.0  -0.6456
  O  O208  1  0.812660  0.759440  0.489500  1.0  -0.8433
  O  O209  1  0.066100  0.824670  0.739300  1.0  -0.6821
  O  O210  1  0.136610  0.801750  0.693520  1.0  -0.6525
  O  O211  1  0.999260  0.657200  0.364600  1.0  -0.2489
  O  O212  1  0.333160  0.822850  0.156400  1.0  -0.7184
  O  O213  1  0.279580  0.909420  0.024000  1.0  -0.7219
  O  O214  1  0.349000  0.202300  0.068500  1.0  -0.3936
  O  O215  1  0.408200  0.256900  0.214600  1.0  -0.3631
  O  O216  1  0.287340  0.178200  0.363100  1.0  -0.6457
  O  O217  1  0.312660  0.259440  0.489500  1.0  -0.8433
  O  O218  1  0.566100  0.324670  0.739300  1.0  -0.6821
  O  O219  1  0.636610  0.301750  0.693520  1.0  -0.6525
  O  O220  1  0.499260  0.157200  0.364600  1.0  -0.2489
  O  O221  1  0.833160  0.677150  0.656400  1.0  -0.7174
  O  O222  1  0.779580  0.590580  0.524000  1.0  -0.7225
  O  O223  1  0.849000  0.297700  0.568500  1.0  -0.3924
  O  O224  1  0.908200  0.243100  0.714600  1.0  -0.3615
  O  O225  1  0.787340  0.321800  0.863100  1.0  -0.6456
  O  O226  1  0.812660  0.240560  0.989500  1.0  -0.8423
  O  O227  1  0.066100  0.175330  0.239300  1.0  -0.685
  O  O228  1  0.136610  0.198250  0.193520  1.0  -0.6506
  O  O229  1  0.999260  0.342800  0.864600  1.0  -0.2489
  O  O230  1  0.333160  0.177150  0.656400  1.0  -0.7174
  O  O231  1  0.279580  0.090580  0.524000  1.0  -0.7225
  O  O232  1  0.349000  0.797700  0.568500  1.0  -0.3924
  O  O233  1  0.408200  0.743100  0.714600  1.0  -0.3615
  O  O234  1  0.287340  0.821800  0.863100  1.0  -0.6455
  O  O235  1  0.312660  0.740560  0.989500  1.0  -0.8423
  O  O236  1  0.566100  0.675330  0.239300  1.0  -0.685
  O  O237  1  0.636610  0.698250  0.193520  1.0  -0.6506
  O  O238  1  0.499260  0.842800  0.864600  1.0  -0.2489
  O  O239  1  0.166840  0.677150  0.843600  1.0  -0.718
  O  O240  1  0.220420  0.590580  0.976000  1.0  -0.7233
  O  O241  1  0.151000  0.297700  0.931500  1.0  -0.3947
  O  O242  1  0.091800  0.243100  0.785400  1.0  -0.3608
  O  O243  1  0.212660  0.321800  0.636900  1.0  -0.6467
  O  O244  1  0.187340  0.240560  0.510500  1.0  -0.841
  O  O245  1  0.933900  0.175330  0.260700  1.0  -0.6834
  O  O246  1  0.863390  0.198250  0.306480  1.0  -0.6498
  O  O247  1  0.000740  0.342800  0.635400  1.0  -0.2488
  O  O248  1  0.666840  0.177150  0.843600  1.0  -0.718
  O  O249  1  0.720420  0.090580  0.976000  1.0  -0.7233
  O  O250  1  0.651000  0.797700  0.931500  1.0  -0.3947
  O  O251  1  0.591800  0.743100  0.785400  1.0  -0.3608
  O  O252  1  0.712660  0.821800  0.636900  1.0  -0.6466
  O  O253  1  0.687340  0.740560  0.510500  1.0  -0.841
  O  O254  1  0.433900  0.675330  0.260700  1.0  -0.6834
  O  O255  1  0.363390  0.698250  0.306480  1.0  -0.6498
  O  O256  1  0.500740  0.842800  0.635400  1.0  -0.2488
