# generated using pymatgen
data_LaH6C15NO9
_symmetry_space_group_name_H-M   'P 1'
_cell_length_a   23.73690000
_cell_length_b   15.82160000
_cell_length_c   16.28900000
_cell_angle_alpha   90.00000000
_cell_angle_beta   124.05400000
_cell_angle_gamma   90.00000000
_symmetry_Int_Tables_number   1
_chemical_formula_structural   LaH6C15NO9
_chemical_formula_sum   'La8 H48 C120 N8 O72'
_cell_volume   5068.35086177
_cell_formula_units_Z   8
loop_
 _symmetry_equiv_pos_site_id
 _symmetry_equiv_pos_as_xyz
  1  'x, y, z'
loop_
 _atom_site_type_symbol
 _atom_site_label
 _atom_site_symmetry_multiplicity
 _atom_site_fract_x
 _atom_site_fract_y
 _atom_site_fract_z
 _atom_site_occupancy
 _atom_site_charge
  La  La1  1  0.188740  0.330440  0.378410  1.0  2.1586
  La  La2  1  0.688740  0.830440  0.378410  1.0  2.1586
  La  La3  1  0.811260  0.330440  0.121590  1.0  2.1583
  La  La4  1  0.311260  0.830440  0.121590  1.0  2.1583
  La  La5  1  0.811260  0.669560  0.621590  1.0  2.1583
  La  La6  1  0.311260  0.169560  0.621590  1.0  2.1583
  La  La7  1  0.188740  0.669560  0.878410  1.0  2.1588
  La  La8  1  0.688740  0.169560  0.878410  1.0  2.1588
  H  H9  1  0.945300  0.280200  0.102500  1.0  0.1207
  H  H10  1  0.882300  0.158900  0.845500  1.0  0.122
  H  H11  1  0.079400  0.229700  0.028300  1.0  0.1372
  H  H12  1  0.824900  0.056600  0.576700  1.0  0.1241
  H  H13  1  0.936200  0.890000  0.799200  1.0  0.0992
  H  H14  1  0.007400  0.998500  0.899800  1.0  0.1394
  H  H15  1  0.445300  0.780200  0.102500  1.0  0.1207
  H  H16  1  0.382300  0.658900  0.845500  1.0  0.122
  H  H17  1  0.579400  0.729700  0.028300  1.0  0.1372
  H  H18  1  0.324900  0.556600  0.576700  1.0  0.1241
  H  H19  1  0.436200  0.390000  0.799200  1.0  0.0992
  H  H20  1  0.507400  0.498500  0.899800  1.0  0.1394
  H  H21  1  0.054700  0.280200  0.397500  1.0  0.1209
  H  H22  1  0.117700  0.158900  0.654500  1.0  0.1218
  H  H23  1  0.920600  0.229700  0.471700  1.0  0.1371
  H  H24  1  0.175100  0.056600  0.923300  1.0  0.1242
  H  H25  1  0.063800  0.890000  0.700800  1.0  0.0989
  H  H26  1  0.992600  0.998500  0.600200  1.0  0.1393
  H  H27  1  0.554700  0.780200  0.397500  1.0  0.1209
  H  H28  1  0.617700  0.658900  0.654500  1.0  0.1218
  H  H29  1  0.420600  0.729700  0.471700  1.0  0.1371
  H  H30  1  0.675100  0.556600  0.923300  1.0  0.1242
  H  H31  1  0.563800  0.390000  0.700800  1.0  0.0989
  H  H32  1  0.492600  0.498500  0.600200  1.0  0.1393
  H  H33  1  0.054700  0.719800  0.897500  1.0  0.1214
  H  H34  1  0.117700  0.841100  0.154500  1.0  0.1212
  H  H35  1  0.920600  0.770300  0.971700  1.0  0.1369
  H  H36  1  0.175100  0.943400  0.423300  1.0  0.1238
  H  H37  1  0.063800  0.110000  0.200800  1.0  0.0996
  H  H38  1  0.992600  0.001500  0.100200  1.0  0.1395
  H  H39  1  0.554700  0.219800  0.897500  1.0  0.1214
  H  H40  1  0.617700  0.341100  0.154500  1.0  0.1212
  H  H41  1  0.420600  0.270300  0.971700  1.0  0.1369
  H  H42  1  0.675100  0.443400  0.423300  1.0  0.1238
  H  H43  1  0.563800  0.610000  0.200800  1.0  0.0996
  H  H44  1  0.492600  0.501500  0.100200  1.0  0.1395
  H  H45  1  0.945300  0.719800  0.602500  1.0  0.1211
  H  H46  1  0.882300  0.841100  0.345500  1.0  0.1214
  H  H47  1  0.079400  0.770300  0.528300  1.0  0.1372
  H  H48  1  0.824900  0.943400  0.076700  1.0  0.124
  H  H49  1  0.936200  0.110000  0.299200  1.0  0.0996
  H  H50  1  0.007400  0.001500  0.399800  1.0  0.1392
  H  H51  1  0.445300  0.219800  0.602500  1.0  0.1211
  H  H52  1  0.382300  0.341100  0.345500  1.0  0.1214
  H  H53  1  0.579400  0.270300  0.528300  1.0  0.1372
  H  H54  1  0.324900  0.443400  0.076700  1.0  0.124
  H  H55  1  0.436200  0.610000  0.299200  1.0  0.0996
  H  H56  1  0.507400  0.501500  0.399800  1.0  0.1392
  C  C57  1  0.020200  0.261100  0.079100  1.0  -0.1051
  C  C58  1  0.954700  0.257600  0.057400  1.0  -0.0373
  C  C59  1  0.903300  0.221000  0.969400  1.0  -0.1314
  C  C60  1  0.917300  0.185300  0.905000  1.0  -0.1121
  C  C61  1  0.982800  0.188700  0.928600  1.0  0.2643
  C  C62  1  0.034700  0.226800  0.014000  1.0  -0.1066
  C  C63  1  0.956600  0.093200  0.801300  1.0  0.2413
  C  C64  1  0.903100  0.109900  0.704200  1.0  -0.0756
  C  C65  1  0.861300  0.044900  0.643100  1.0  -0.0527
  C  C66  1  0.872700  0.963000  0.678800  1.0  -0.147
  C  C67  1  0.927500  0.946300  0.774800  1.0  0.0065
  C  C68  1  0.969400  0.010800  0.834900  1.0  -0.1678
  C  C69  1  0.077700  0.299700  0.175200  1.0  0.6702
  C  C70  1  0.830900  0.218000  0.939100  1.0  0.7419
  C  C71  1  0.824700  0.893300  0.615300  1.0  0.7732
  C  C72  1  0.520200  0.761100  0.079100  1.0  -0.1051
  C  C73  1  0.454700  0.757600  0.057400  1.0  -0.0373
  C  C74  1  0.403300  0.721000  0.969400  1.0  -0.1314
  C  C75  1  0.417300  0.685300  0.905000  1.0  -0.1121
  C  C76  1  0.482800  0.688700  0.928600  1.0  0.2643
  C  C77  1  0.534700  0.726800  0.014000  1.0  -0.1066
  C  C78  1  0.456600  0.593200  0.801300  1.0  0.2413
  C  C79  1  0.403100  0.609900  0.704200  1.0  -0.0756
  C  C80  1  0.361300  0.544900  0.643100  1.0  -0.0527
  C  C81  1  0.372700  0.463000  0.678800  1.0  -0.147
  C  C82  1  0.427500  0.446300  0.774800  1.0  0.0065
  C  C83  1  0.469400  0.510800  0.834900  1.0  -0.1678
  C  C84  1  0.577700  0.799700  0.175200  1.0  0.6702
  C  C85  1  0.330900  0.718000  0.939100  1.0  0.7419
  C  C86  1  0.324700  0.393300  0.615300  1.0  0.7732
  C  C87  1  0.979800  0.261100  0.420900  1.0  -0.1052
  C  C88  1  0.045300  0.257600  0.442600  1.0  -0.0362
  C  C89  1  0.096700  0.221000  0.530600  1.0  -0.1322
  C  C90  1  0.082700  0.185300  0.595000  1.0  -0.1147
  C  C91  1  0.017200  0.188700  0.571400  1.0  0.2647
  C  C92  1  0.965300  0.226800  0.486000  1.0  -0.1085
  C  C93  1  0.043400  0.093200  0.698700  1.0  0.2429
  C  C94  1  0.096900  0.109900  0.795800  1.0  -0.0748
  C  C95  1  0.138700  0.044900  0.856900  1.0  -0.0552
  C  C96  1  0.127300  0.963000  0.821200  1.0  -0.1465
  C  C97  1  0.072500  0.946300  0.725200  1.0  0.0067
  C  C98  1  0.030600  0.010800  0.665100  1.0  -0.1692
  C  C99  1  0.922300  0.299700  0.324800  1.0  0.6705
  C  C100  1  0.169100  0.218000  0.560900  1.0  0.7415
  C  C101  1  0.175300  0.893300  0.884700  1.0  0.773
  C  C102  1  0.479800  0.761100  0.420900  1.0  -0.1052
  C  C103  1  0.545300  0.757600  0.442600  1.0  -0.0362
  C  C104  1  0.596700  0.721000  0.530600  1.0  -0.1322
  C  C105  1  0.582700  0.685300  0.595000  1.0  -0.1147
  C  C106  1  0.517200  0.688700  0.571400  1.0  0.2647
  C  C107  1  0.465300  0.726800  0.486000  1.0  -0.1085
  C  C108  1  0.543400  0.593200  0.698700  1.0  0.2429
  C  C109  1  0.596900  0.609900  0.795800  1.0  -0.0748
  C  C110  1  0.638700  0.544900  0.856900  1.0  -0.0552
  C  C111  1  0.627300  0.463000  0.821200  1.0  -0.1465
  C  C112  1  0.572500  0.446300  0.725200  1.0  0.0067
  C  C113  1  0.530600  0.510800  0.665100  1.0  -0.1692
  C  C114  1  0.422300  0.799700  0.324800  1.0  0.6705
  C  C115  1  0.669100  0.718000  0.560900  1.0  0.7415
  C  C116  1  0.675300  0.393300  0.884700  1.0  0.773
  C  C117  1  0.979800  0.738900  0.920900  1.0  -0.1041
  C  C118  1  0.045300  0.742400  0.942600  1.0  -0.0363
  C  C119  1  0.096700  0.779000  0.030600  1.0  -0.1327
  C  C120  1  0.082700  0.814700  0.095000  1.0  -0.1149
  C  C121  1  0.017200  0.811300  0.071400  1.0  0.2637
  C  C122  1  0.965300  0.773200  0.986000  1.0  -0.1077
  C  C123  1  0.043400  0.906800  0.198700  1.0  0.2431
  C  C124  1  0.096900  0.890100  0.295800  1.0  -0.0745
  C  C125  1  0.138700  0.955100  0.356900  1.0  -0.0547
  C  C126  1  0.127300  0.037000  0.321200  1.0  -0.1474
  C  C127  1  0.072500  0.053700  0.225200  1.0  0.0063
  C  C128  1  0.030600  0.989200  0.165100  1.0  -0.1691
  C  C129  1  0.922300  0.700300  0.824800  1.0  0.6702
  C  C130  1  0.169100  0.782000  0.060900  1.0  0.7419
  C  C131  1  0.175300  0.106700  0.384700  1.0  0.7734
  C  C132  1  0.479800  0.238900  0.920900  1.0  -0.1041
  C  C133  1  0.545300  0.242400  0.942600  1.0  -0.0363
  C  C134  1  0.596700  0.279000  0.030600  1.0  -0.1327
  C  C135  1  0.582700  0.314700  0.095000  1.0  -0.1149
  C  C136  1  0.517200  0.311300  0.071400  1.0  0.2637
  C  C137  1  0.465300  0.273200  0.986000  1.0  -0.1077
  C  C138  1  0.543400  0.406800  0.198700  1.0  0.2431
  C  C139  1  0.596900  0.390100  0.295800  1.0  -0.0745
  C  C140  1  0.638700  0.455100  0.356900  1.0  -0.0547
  C  C141  1  0.627300  0.537000  0.321200  1.0  -0.1474
  C  C142  1  0.572500  0.553700  0.225200  1.0  0.0063
  C  C143  1  0.530600  0.489200  0.165100  1.0  -0.1691
  C  C144  1  0.422300  0.200300  0.824800  1.0  0.6702
  C  C145  1  0.669100  0.282000  0.060900  1.0  0.7419
  C  C146  1  0.675300  0.606700  0.384700  1.0  0.7734
  C  C147  1  0.020200  0.738900  0.579100  1.0  -0.1043
  C  C148  1  0.954700  0.742400  0.557400  1.0  -0.0366
  C  C149  1  0.903300  0.779000  0.469400  1.0  -0.1327
  C  C150  1  0.917300  0.814700  0.405000  1.0  -0.1119
  C  C151  1  0.982800  0.811300  0.428600  1.0  0.2635
  C  C152  1  0.034700  0.773200  0.514000  1.0  -0.1066
  C  C153  1  0.956600  0.906800  0.301300  1.0  0.2417
  C  C154  1  0.903100  0.890100  0.204200  1.0  -0.0754
  C  C155  1  0.861300  0.955100  0.143100  1.0  -0.0526
  C  C156  1  0.872700  0.037000  0.178800  1.0  -0.1465
  C  C157  1  0.927500  0.053700  0.274800  1.0  0.0062
  C  C158  1  0.969400  0.989200  0.334900  1.0  -0.1676
  C  C159  1  0.077700  0.700300  0.675200  1.0  0.6716
  C  C160  1  0.830900  0.782000  0.439100  1.0  0.742
  C  C161  1  0.824700  0.106700  0.115300  1.0  0.7736
  C  C162  1  0.520200  0.238900  0.579100  1.0  -0.1043
  C  C163  1  0.454700  0.242400  0.557400  1.0  -0.0366
  C  C164  1  0.403300  0.279000  0.469400  1.0  -0.1327
  C  C165  1  0.417300  0.314700  0.405000  1.0  -0.1119
  C  C166  1  0.482800  0.311300  0.428600  1.0  0.2635
  C  C167  1  0.534700  0.273200  0.514000  1.0  -0.1066
  C  C168  1  0.456600  0.406800  0.301300  1.0  0.2417
  C  C169  1  0.403100  0.390100  0.204200  1.0  -0.0754
  C  C170  1  0.361300  0.455100  0.143100  1.0  -0.0526
  C  C171  1  0.372700  0.537000  0.178800  1.0  -0.1465
  C  C172  1  0.427500  0.553700  0.274800  1.0  0.0062
  C  C173  1  0.469400  0.489200  0.334900  1.0  -0.1676
  C  C174  1  0.577700  0.200300  0.675200  1.0  0.6716
  C  C175  1  0.330900  0.282000  0.439100  1.0  0.742
  C  C176  1  0.324700  0.606700  0.115300  1.0  0.7736
  N  N177  1  0.886800  0.195400  0.662500  1.0  0.6212
  N  N178  1  0.386800  0.695400  0.662500  1.0  0.6212
  N  N179  1  0.113200  0.195400  0.837500  1.0  0.6204
  N  N180  1  0.613200  0.695400  0.837500  1.0  0.6204
  N  N181  1  0.113200  0.804600  0.337500  1.0  0.6198
  N  N182  1  0.613200  0.304600  0.337500  1.0  0.6198
  N  N183  1  0.886800  0.804600  0.162500  1.0  0.617
  N  N184  1  0.386800  0.304600  0.162500  1.0  0.617
  O  O185  1  0.135660  0.302800  0.191500  1.0  -0.6503
  O  O186  1  0.064670  0.325900  0.236100  1.0  -0.6743
  O  O187  1  0.813160  0.257900  0.988700  1.0  -0.846
  O  O188  1  0.788930  0.175800  0.863900  1.0  -0.657
  O  O189  1  0.910600  0.256000  0.717800  1.0  -0.3764
  O  O190  1  0.850200  0.202600  0.571800  1.0  -0.3979
  O  O191  1  0.779900  0.911300  0.526600  1.0  -0.7228
  O  O192  1  0.832980  0.823600  0.656300  1.0  -0.7126
  O  O193  1  0.000120  0.155400  0.865800  1.0  -0.2426
  O  O194  1  0.635660  0.802800  0.191500  1.0  -0.6503
  O  O195  1  0.564670  0.825900  0.236100  1.0  -0.6743
  O  O196  1  0.313160  0.757900  0.988700  1.0  -0.846
  O  O197  1  0.288930  0.675800  0.863900  1.0  -0.6569
  O  O198  1  0.410600  0.756000  0.717800  1.0  -0.3764
  O  O199  1  0.350200  0.702600  0.571800  1.0  -0.3979
  O  O200  1  0.279900  0.411300  0.526600  1.0  -0.7228
  O  O201  1  0.332980  0.323600  0.656300  1.0  -0.7126
  O  O202  1  0.500120  0.655400  0.865800  1.0  -0.2426
  O  O203  1  0.864340  0.302800  0.308500  1.0  -0.6493
  O  O204  1  0.935330  0.325900  0.263900  1.0  -0.6756
  O  O205  1  0.186840  0.257900  0.511300  1.0  -0.845
  O  O206  1  0.211070  0.175800  0.636100  1.0  -0.6594
  O  O207  1  0.089400  0.256000  0.782200  1.0  -0.3738
  O  O208  1  0.149800  0.202600  0.928200  1.0  -0.399
  O  O209  1  0.220100  0.911300  0.973400  1.0  -0.7245
  O  O210  1  0.167020  0.823600  0.843700  1.0  -0.7112
  O  O211  1  0.999880  0.155400  0.634200  1.0  -0.2423
  O  O212  1  0.364340  0.802800  0.308500  1.0  -0.6493
  O  O213  1  0.435330  0.825900  0.263900  1.0  -0.6756
  O  O214  1  0.686840  0.757900  0.511300  1.0  -0.845
  O  O215  1  0.711070  0.675800  0.636100  1.0  -0.6591
  O  O216  1  0.589400  0.756000  0.782200  1.0  -0.3738
  O  O217  1  0.649800  0.702600  0.928200  1.0  -0.399
  O  O218  1  0.720100  0.411300  0.973400  1.0  -0.7245
  O  O219  1  0.667020  0.323600  0.843700  1.0  -0.7112
  O  O220  1  0.499880  0.655400  0.634200  1.0  -0.2423
  O  O221  1  0.864340  0.697200  0.808500  1.0  -0.6478
  O  O222  1  0.935330  0.674100  0.763900  1.0  -0.6755
  O  O223  1  0.186840  0.742100  0.011300  1.0  -0.8446
  O  O224  1  0.211070  0.824200  0.136100  1.0  -0.6592
  O  O225  1  0.089400  0.744000  0.282200  1.0  -0.3763
  O  O226  1  0.149800  0.797400  0.428200  1.0  -0.4001
  O  O227  1  0.220100  0.088700  0.473400  1.0  -0.7233
  O  O228  1  0.167020  0.176400  0.343700  1.0  -0.7105
  O  O229  1  0.999880  0.844600  0.134200  1.0  -0.2439
  O  O230  1  0.364340  0.197200  0.808500  1.0  -0.6478
  O  O231  1  0.435330  0.174100  0.763900  1.0  -0.6755
  O  O232  1  0.686840  0.242100  0.011300  1.0  -0.8446
  O  O233  1  0.711070  0.324200  0.136100  1.0  -0.66
  O  O234  1  0.589400  0.244000  0.282200  1.0  -0.3763
  O  O235  1  0.649800  0.297400  0.428200  1.0  -0.4001
  O  O236  1  0.720100  0.588700  0.473400  1.0  -0.7233
  O  O237  1  0.667020  0.676400  0.343700  1.0  -0.7105
  O  O238  1  0.499880  0.344600  0.134200  1.0  -0.2439
  O  O239  1  0.135660  0.697200  0.691500  1.0  -0.6486
  O  O240  1  0.064670  0.674100  0.736100  1.0  -0.6771
  O  O241  1  0.813160  0.742100  0.488700  1.0  -0.845
  O  O242  1  0.788930  0.824200  0.363900  1.0  -0.6569
  O  O243  1  0.910600  0.744000  0.217800  1.0  -0.3774
  O  O244  1  0.850200  0.797400  0.071800  1.0  -0.3972
  O  O245  1  0.779900  0.088700  0.026600  1.0  -0.7225
  O  O246  1  0.832980  0.176400  0.156300  1.0  -0.712
  O  O247  1  0.000120  0.844600  0.365800  1.0  -0.2436
  O  O248  1  0.635660  0.197200  0.691500  1.0  -0.6486
  O  O249  1  0.564670  0.174100  0.736100  1.0  -0.6771
  O  O250  1  0.313160  0.242100  0.488700  1.0  -0.845
  O  O251  1  0.288930  0.324200  0.363900  1.0  -0.6576
  O  O252  1  0.410600  0.244000  0.217800  1.0  -0.3774
  O  O253  1  0.350200  0.297400  0.071800  1.0  -0.3972
  O  O254  1  0.279900  0.588700  0.026600  1.0  -0.7225
  O  O255  1  0.332980  0.676400  0.156300  1.0  -0.712
  O  O256  1  0.500120  0.344600  0.365800  1.0  -0.2436
