# generated using pymatgen
data_SmH6C15NO9
_symmetry_space_group_name_H-M   'P 1'
_cell_length_a   23.61080000
_cell_length_b   15.72880000
_cell_length_c   16.16120000
_cell_angle_alpha   90.00000000
_cell_angle_beta   124.29100000
_cell_angle_gamma   90.00000000
_symmetry_Int_Tables_number   1
_chemical_formula_structural   SmH6C15NO9
_chemical_formula_sum   'Sm8 H48 C120 N8 O72'
_cell_volume   4958.58943658
_cell_formula_units_Z   8
loop_
 _symmetry_equiv_pos_site_id
 _symmetry_equiv_pos_as_xyz
  1  'x, y, z'
loop_
 _atom_site_type_symbol
 _atom_site_label
 _atom_site_symmetry_multiplicity
 _atom_site_fract_x
 _atom_site_fract_y
 _atom_site_fract_z
 _atom_site_occupancy
 _atom_site_charge
  Sm  Sm1  1  0.810460  0.828140  0.121690  1.0  2.2616
  Sm  Sm2  1  0.310460  0.328140  0.121690  1.0  2.262
  Sm  Sm3  1  0.189540  0.828140  0.378310  1.0  2.2618
  Sm  Sm4  1  0.689540  0.328140  0.378310  1.0  2.2629
  Sm  Sm5  1  0.189540  0.171860  0.878310  1.0  2.2529
  Sm  Sm6  1  0.689540  0.671860  0.878310  1.0  2.2578
  Sm  Sm7  1  0.810460  0.171860  0.621690  1.0  2.2577
  Sm  Sm8  1  0.310460  0.671860  0.621690  1.0  2.2604
  H  H9  1  0.120100  0.662600  0.656900  1.0  0.1125
  H  H10  1  0.920800  0.729700  0.471300  1.0  0.1341
  H  H11  1  0.053500  0.779200  0.392600  1.0  0.1132
  H  H12  1  0.177500  0.555800  0.927800  1.0  0.1213
  H  H13  1  0.064600  0.390400  0.701500  1.0  0.0979
  H  H14  1  0.993900  0.501100  0.600000  1.0  0.138
  H  H15  1  0.620100  0.162600  0.656900  1.0  0.1125
  H  H16  1  0.420800  0.229700  0.471300  1.0  0.1341
  H  H17  1  0.553500  0.279200  0.392600  1.0  0.1132
  H  H18  1  0.677500  0.055800  0.927800  1.0  0.1213
  H  H19  1  0.564600  0.890400  0.701500  1.0  0.0979
  H  H20  1  0.493900  0.001100  0.600000  1.0  0.138
  H  H21  1  0.879900  0.662600  0.843100  1.0  0.1126
  H  H22  1  0.079200  0.729700  0.028700  1.0  0.1335
  H  H23  1  0.946500  0.779200  0.107400  1.0  0.1128
  H  H24  1  0.822500  0.555800  0.572200  1.0  0.1215
  H  H25  1  0.935400  0.390400  0.798500  1.0  0.0975
  H  H26  1  0.006100  0.501100  0.900000  1.0  0.1385
  H  H27  1  0.379900  0.162600  0.843100  1.0  0.1126
  H  H28  1  0.579200  0.229700  0.028700  1.0  0.1335
  H  H29  1  0.446500  0.279200  0.107400  1.0  0.1128
  H  H30  1  0.322500  0.055800  0.572200  1.0  0.1215
  H  H31  1  0.435400  0.890400  0.798500  1.0  0.0975
  H  H32  1  0.506100  0.001100  0.900000  1.0  0.1385
  H  H33  1  0.879900  0.337400  0.343100  1.0  0.1123
  H  H34  1  0.079200  0.270300  0.528700  1.0  0.1336
  H  H35  1  0.946500  0.220800  0.607400  1.0  0.1129
  H  H36  1  0.822500  0.444200  0.072200  1.0  0.1214
  H  H37  1  0.935400  0.609600  0.298500  1.0  0.0975
  H  H38  1  0.006100  0.498900  0.400000  1.0  0.1382
  H  H39  1  0.379900  0.837400  0.343100  1.0  0.1123
  H  H40  1  0.579200  0.770300  0.528700  1.0  0.1336
  H  H41  1  0.446500  0.720800  0.607400  1.0  0.1129
  H  H42  1  0.322500  0.944200  0.072200  1.0  0.1214
  H  H43  1  0.435400  0.109600  0.298500  1.0  0.0975
  H  H44  1  0.506100  0.998900  0.400000  1.0  0.1382
  H  H45  1  0.120100  0.337400  0.156900  1.0  0.1122
  H  H46  1  0.920800  0.270300  0.971300  1.0  0.1341
  H  H47  1  0.053500  0.220800  0.892600  1.0  0.1135
  H  H48  1  0.177500  0.444200  0.427800  1.0  0.1211
  H  H49  1  0.064600  0.609600  0.201500  1.0  0.0981
  H  H50  1  0.993900  0.498900  0.100000  1.0  0.1381
  H  H51  1  0.620100  0.837400  0.156900  1.0  0.1122
  H  H52  1  0.420800  0.770300  0.971300  1.0  0.1341
  H  H53  1  0.553500  0.720800  0.892600  1.0  0.1135
  H  H54  1  0.677500  0.944200  0.427800  1.0  0.1211
  H  H55  1  0.564600  0.109600  0.201500  1.0  0.0981
  H  H56  1  0.493900  0.998900  0.100000  1.0  0.1381
  C  C57  1  0.098300  0.723400  0.530300  1.0  -0.1442
  C  C58  1  0.084400  0.688400  0.596400  1.0  -0.1142
  C  C59  1  0.018700  0.691200  0.573500  1.0  0.2952
  C  C60  1  0.965700  0.727700  0.485700  1.0  -0.1025
  C  C61  1  0.979000  0.761600  0.418200  1.0  -0.1122
  C  C62  1  0.044900  0.758100  0.439500  1.0  -0.0555
  C  C63  1  0.045600  0.595200  0.701800  1.0  0.2238
  C  C64  1  0.099900  0.610200  0.800100  1.0  -0.0315
  C  C65  1  0.140900  0.544600  0.860400  1.0  -0.0714
  C  C66  1  0.129300  0.462700  0.823900  1.0  -0.1476
  C  C67  1  0.073900  0.446800  0.726700  1.0  -0.0019
  C  C68  1  0.032000  0.512700  0.666200  1.0  -0.1623
  C  C69  1  0.170500  0.722300  0.559000  1.0  0.7392
  C  C70  1  0.177100  0.390900  0.887700  1.0  0.7586
  C  C71  1  0.920800  0.797700  0.321000  1.0  0.6827
  C  C72  1  0.598300  0.223400  0.530300  1.0  -0.1442
  C  C73  1  0.584400  0.188400  0.596400  1.0  -0.1142
  C  C74  1  0.518700  0.191200  0.573500  1.0  0.2952
  C  C75  1  0.465700  0.227700  0.485700  1.0  -0.1025
  C  C76  1  0.479000  0.261600  0.418200  1.0  -0.1122
  C  C77  1  0.544900  0.258100  0.439500  1.0  -0.0555
  C  C78  1  0.545600  0.095200  0.701800  1.0  0.2238
  C  C79  1  0.599900  0.110200  0.800100  1.0  -0.0315
  C  C80  1  0.640900  0.044600  0.860400  1.0  -0.0714
  C  C81  1  0.629300  0.962700  0.823900  1.0  -0.1476
  C  C82  1  0.573900  0.946800  0.726700  1.0  -0.0019
  C  C83  1  0.532000  0.012700  0.666200  1.0  -0.1623
  C  C84  1  0.670500  0.222300  0.559000  1.0  0.7392
  C  C85  1  0.677100  0.890900  0.887700  1.0  0.7586
  C  C86  1  0.420800  0.297700  0.321000  1.0  0.6827
  C  C87  1  0.901700  0.723400  0.969700  1.0  -0.1438
  C  C88  1  0.915600  0.688400  0.903600  1.0  -0.1144
  C  C89  1  0.981300  0.691200  0.926500  1.0  0.295
  C  C90  1  0.034300  0.727700  0.014300  1.0  -0.0999
  C  C91  1  0.021000  0.761600  0.081800  1.0  -0.1128
  C  C92  1  0.955100  0.758100  0.060500  1.0  -0.0563
  C  C93  1  0.954400  0.595200  0.798200  1.0  0.2223
  C  C94  1  0.900100  0.610200  0.699900  1.0  -0.0311
  C  C95  1  0.859100  0.544600  0.639600  1.0  -0.0683
  C  C96  1  0.870700  0.462700  0.676100  1.0  -0.1477
  C  C97  1  0.926100  0.446800  0.773300  1.0  -0.0021
  C  C98  1  0.968000  0.512700  0.833800  1.0  -0.1611
  C  C99  1  0.829500  0.722300  0.941000  1.0  0.7402
  C  C100  1  0.822900  0.390900  0.612300  1.0  0.7584
  C  C101  1  0.079200  0.797700  0.179000  1.0  0.6839
  C  C102  1  0.401700  0.223400  0.969700  1.0  -0.1438
  C  C103  1  0.415600  0.188400  0.903600  1.0  -0.1144
  C  C104  1  0.481300  0.191200  0.926500  1.0  0.295
  C  C105  1  0.534300  0.227700  0.014300  1.0  -0.0999
  C  C106  1  0.521000  0.261600  0.081800  1.0  -0.1128
  C  C107  1  0.455100  0.258100  0.060500  1.0  -0.0563
  C  C108  1  0.454400  0.095200  0.798200  1.0  0.2223
  C  C109  1  0.400100  0.110200  0.699900  1.0  -0.0311
  C  C110  1  0.359100  0.044600  0.639600  1.0  -0.0683
  C  C111  1  0.370700  0.962700  0.676100  1.0  -0.1477
  C  C112  1  0.426100  0.946800  0.773300  1.0  -0.0021
  C  C113  1  0.468000  0.012700  0.833800  1.0  -0.1611
  C  C114  1  0.329500  0.222300  0.941000  1.0  0.7402
  C  C115  1  0.322900  0.890900  0.612300  1.0  0.7584
  C  C116  1  0.579200  0.297700  0.179000  1.0  0.6839
  C  C117  1  0.901700  0.276600  0.469700  1.0  -0.1444
  C  C118  1  0.915600  0.311600  0.403600  1.0  -0.1145
  C  C119  1  0.981300  0.308800  0.426500  1.0  0.2947
  C  C120  1  0.034300  0.272300  0.514300  1.0  -0.0999
  C  C121  1  0.021000  0.238400  0.581800  1.0  -0.1112
  C  C122  1  0.955100  0.241900  0.560500  1.0  -0.0561
  C  C123  1  0.954400  0.404800  0.298200  1.0  0.2225
  C  C124  1  0.900100  0.389800  0.199900  1.0  -0.0311
  C  C125  1  0.859100  0.455400  0.139600  1.0  -0.0684
  C  C126  1  0.870700  0.537300  0.176100  1.0  -0.1476
  C  C127  1  0.926100  0.553200  0.273300  1.0  -0.0014
  C  C128  1  0.968000  0.487300  0.333800  1.0  -0.1614
  C  C129  1  0.829500  0.277700  0.441000  1.0  0.7404
  C  C130  1  0.822900  0.609100  0.112300  1.0  0.7593
  C  C131  1  0.079200  0.202300  0.679000  1.0  0.6846
  C  C132  1  0.401700  0.776600  0.469700  1.0  -0.1444
  C  C133  1  0.415600  0.811600  0.403600  1.0  -0.1145
  C  C134  1  0.481300  0.808800  0.426500  1.0  0.2947
  C  C135  1  0.534300  0.772300  0.514300  1.0  -0.0999
  C  C136  1  0.521000  0.738400  0.581800  1.0  -0.1112
  C  C137  1  0.455100  0.741900  0.560500  1.0  -0.0561
  C  C138  1  0.454400  0.904800  0.298200  1.0  0.2225
  C  C139  1  0.400100  0.889800  0.199900  1.0  -0.0311
  C  C140  1  0.359100  0.955400  0.139600  1.0  -0.0684
  C  C141  1  0.370700  0.037300  0.176100  1.0  -0.1476
  C  C142  1  0.426100  0.053200  0.273300  1.0  -0.0014
  C  C143  1  0.468000  0.987300  0.333800  1.0  -0.1614
  C  C144  1  0.329500  0.777700  0.441000  1.0  0.7404
  C  C145  1  0.322900  0.109100  0.112300  1.0  0.7593
  C  C146  1  0.579200  0.702300  0.679000  1.0  0.6846
  C  C147  1  0.098300  0.276600  0.030300  1.0  -0.1441
  C  C148  1  0.084400  0.311600  0.096400  1.0  -0.1144
  C  C149  1  0.018700  0.308800  0.073500  1.0  0.2946
  C  C150  1  0.965700  0.272300  0.985700  1.0  -0.102
  C  C151  1  0.979000  0.238400  0.918200  1.0  -0.1109
  C  C152  1  0.044900  0.241900  0.939500  1.0  -0.0554
  C  C153  1  0.045600  0.404800  0.201800  1.0  0.2237
  C  C154  1  0.099900  0.389800  0.300100  1.0  -0.0319
  C  C155  1  0.140900  0.455400  0.360400  1.0  -0.071
  C  C156  1  0.129300  0.537300  0.323900  1.0  -0.1487
  C  C157  1  0.073900  0.553200  0.226700  1.0  -0.0021
  C  C158  1  0.032000  0.487300  0.166200  1.0  -0.1626
  C  C159  1  0.170500  0.277700  0.059000  1.0  0.7393
  C  C160  1  0.177100  0.609100  0.387700  1.0  0.759
  C  C161  1  0.920800  0.202300  0.821000  1.0  0.682
  C  C162  1  0.598300  0.776600  0.030300  1.0  -0.1441
  C  C163  1  0.584400  0.811600  0.096400  1.0  -0.1144
  C  C164  1  0.518700  0.808800  0.073500  1.0  0.2946
  C  C165  1  0.465700  0.772300  0.985700  1.0  -0.102
  C  C166  1  0.479000  0.738400  0.918200  1.0  -0.1109
  C  C167  1  0.544900  0.741900  0.939500  1.0  -0.0554
  C  C168  1  0.545600  0.904800  0.201800  1.0  0.2237
  C  C169  1  0.599900  0.889800  0.300100  1.0  -0.0319
  C  C170  1  0.640900  0.955400  0.360400  1.0  -0.071
  C  C171  1  0.629300  0.037300  0.323900  1.0  -0.1487
  C  C172  1  0.573900  0.053200  0.226700  1.0  -0.0021
  C  C173  1  0.532000  0.987300  0.166200  1.0  -0.1626
  C  C174  1  0.670500  0.777700  0.059000  1.0  0.7393
  C  C175  1  0.677100  0.109100  0.387700  1.0  0.759
  C  C176  1  0.420800  0.702300  0.821000  1.0  0.682
  N  N177  1  0.116100  0.695900  0.843300  1.0  0.6188
  N  N178  1  0.616100  0.195900  0.843300  1.0  0.6188
  N  N179  1  0.883900  0.695900  0.656700  1.0  0.6213
  N  N180  1  0.383900  0.195900  0.656700  1.0  0.6213
  N  N181  1  0.883900  0.304100  0.156700  1.0  0.6195
  N  N182  1  0.383900  0.804100  0.156700  1.0  0.6195
  N  N183  1  0.116100  0.304100  0.343300  1.0  0.6198
  N  N184  1  0.616100  0.804100  0.343300  1.0  0.6198
  O  O185  1  0.186940  0.761500  0.507800  1.0  -0.8243
  O  O186  1  0.213580  0.681600  0.636400  1.0  -0.6844
  O  O187  1  0.093700  0.757200  0.787600  1.0  -0.384
  O  O188  1  0.152400  0.702200  0.934400  1.0  -0.3789
  O  O189  1  0.220960  0.407700  0.978900  1.0  -0.7597
  O  O190  1  0.168290  0.322100  0.844200  1.0  -0.7003
  O  O191  1  0.862150  0.800500  0.304600  1.0  -0.696
  O  O192  1  0.932350  0.822700  0.257500  1.0  -0.6699
  O  O193  1  0.002250  0.658400  0.636900  1.0  -0.2518
  O  O194  1  0.686940  0.261500  0.507800  1.0  -0.8243
  O  O195  1  0.713580  0.181600  0.636400  1.0  -0.6854
  O  O196  1  0.593700  0.257200  0.787600  1.0  -0.384
  O  O197  1  0.652400  0.202200  0.934400  1.0  -0.3789
  O  O198  1  0.720960  0.907700  0.978900  1.0  -0.7597
  O  O199  1  0.668290  0.822100  0.844200  1.0  -0.7003
  O  O200  1  0.362150  0.300500  0.304600  1.0  -0.696
  O  O201  1  0.432350  0.322700  0.257500  1.0  -0.6699
  O  O202  1  0.502250  0.158400  0.636900  1.0  -0.2518
  O  O203  1  0.813060  0.761500  0.992200  1.0  -0.825
  O  O204  1  0.786420  0.681600  0.863600  1.0  -0.6847
  O  O205  1  0.906300  0.757200  0.712400  1.0  -0.3864
  O  O206  1  0.847600  0.702200  0.565600  1.0  -0.3786
  O  O207  1  0.779040  0.407700  0.521100  1.0  -0.7596
  O  O208  1  0.831710  0.322100  0.655800  1.0  -0.7003
  O  O209  1  0.137850  0.800500  0.195400  1.0  -0.7008
  O  O210  1  0.067650  0.822700  0.242500  1.0  -0.6705
  O  O211  1  0.997750  0.658400  0.863100  1.0  -0.2523
  O  O212  1  0.313060  0.261500  0.992200  1.0  -0.825
  O  O213  1  0.286420  0.181600  0.863600  1.0  -0.6857
  O  O214  1  0.406300  0.257200  0.712400  1.0  -0.3864
  O  O215  1  0.347600  0.202200  0.565600  1.0  -0.3786
  O  O216  1  0.279040  0.907700  0.521100  1.0  -0.7596
  O  O217  1  0.331710  0.822100  0.655800  1.0  -0.7003
  O  O218  1  0.637850  0.300500  0.195400  1.0  -0.7008
  O  O219  1  0.567650  0.322700  0.242500  1.0  -0.6705
  O  O220  1  0.497750  0.158400  0.863100  1.0  -0.2523
  O  O221  1  0.813060  0.238500  0.492200  1.0  -0.8245
  O  O222  1  0.786420  0.318400  0.363600  1.0  -0.6862
  O  O223  1  0.906300  0.242800  0.212400  1.0  -0.3849
  O  O224  1  0.847600  0.297800  0.065600  1.0  -0.3781
  O  O225  1  0.779040  0.592300  0.021100  1.0  -0.7583
  O  O226  1  0.831710  0.677900  0.155800  1.0  -0.7011
  O  O227  1  0.137850  0.199500  0.695400  1.0  -0.6992
  O  O228  1  0.067650  0.177300  0.742500  1.0  -0.6739
  O  O229  1  0.997750  0.341600  0.363100  1.0  -0.253
  O  O230  1  0.313060  0.738500  0.492200  1.0  -0.8245
  O  O231  1  0.286420  0.818400  0.363600  1.0  -0.6863
  O  O232  1  0.406300  0.742800  0.212400  1.0  -0.3849
  O  O233  1  0.347600  0.797800  0.065600  1.0  -0.3781
  O  O234  1  0.279040  0.092300  0.021100  1.0  -0.7583
  O  O235  1  0.331710  0.177900  0.155800  1.0  -0.7011
  O  O236  1  0.637850  0.699500  0.695400  1.0  -0.6992
  O  O237  1  0.567650  0.677300  0.742500  1.0  -0.6739
  O  O238  1  0.497750  0.841600  0.363100  1.0  -0.253
  O  O239  1  0.186940  0.238500  0.007800  1.0  -0.8236
  O  O240  1  0.213580  0.318400  0.136400  1.0  -0.6858
  O  O241  1  0.093700  0.242800  0.287600  1.0  -0.3838
  O  O242  1  0.152400  0.297800  0.434400  1.0  -0.38
  O  O243  1  0.220960  0.592300  0.478900  1.0  -0.7581
  O  O244  1  0.168290  0.677900  0.344200  1.0  -0.7022
  O  O245  1  0.862150  0.199500  0.804600  1.0  -0.6971
  O  O246  1  0.932350  0.177300  0.757500  1.0  -0.6719
  O  O247  1  0.002250  0.341600  0.136900  1.0  -0.2535
  O  O248  1  0.686940  0.738500  0.007800  1.0  -0.8236
  O  O249  1  0.713580  0.818400  0.136400  1.0  -0.6859
  O  O250  1  0.593700  0.742800  0.287600  1.0  -0.3838
  O  O251  1  0.652400  0.797800  0.434400  1.0  -0.38
  O  O252  1  0.720960  0.092300  0.478900  1.0  -0.7581
  O  O253  1  0.668290  0.177900  0.344200  1.0  -0.7022
  O  O254  1  0.362150  0.699500  0.804600  1.0  -0.6971
  O  O255  1  0.432350  0.677300  0.757500  1.0  -0.6719
  O  O256  1  0.502250  0.841600  0.136900  1.0  -0.2535
