# generated using pymatgen
data_DyH6C15NO9
_symmetry_space_group_name_H-M   'P 1'
_cell_length_a   23.57100000
_cell_length_b   15.67300000
_cell_length_c   16.08200000
_cell_angle_alpha   90.00000000
_cell_angle_beta   124.15400000
_cell_angle_gamma   90.00000000
_symmetry_Int_Tables_number   1
_chemical_formula_structural   DyH6C15NO9
_chemical_formula_sum   'Dy8 H48 C120 N8 O72'
_cell_volume   4916.48562738
_cell_formula_units_Z   8
loop_
 _symmetry_equiv_pos_site_id
 _symmetry_equiv_pos_as_xyz
  1  'x, y, z'
loop_
 _atom_site_type_symbol
 _atom_site_label
 _atom_site_symmetry_multiplicity
 _atom_site_fract_x
 _atom_site_fract_y
 _atom_site_fract_z
 _atom_site_occupancy
 _atom_site_charge
  Dy  Dy1  1  0.810480  0.671980  0.623540  1.0  2.2022
  Dy  Dy2  1  0.310480  0.171980  0.623540  1.0  2.2022
  Dy  Dy3  1  0.189520  0.671980  0.876460  1.0  2.2013
  Dy  Dy4  1  0.689520  0.171980  0.876460  1.0  2.2013
  Dy  Dy5  1  0.189520  0.328020  0.376460  1.0  2.2025
  Dy  Dy6  1  0.689520  0.828020  0.376460  1.0  2.2025
  Dy  Dy7  1  0.810480  0.328020  0.123540  1.0  2.2024
  Dy  Dy8  1  0.310480  0.828020  0.123540  1.0  2.2024
  H  H9  1  0.179900  0.946000  0.430400  1.0  0.1196
  H  H10  1  0.996000  0.001900  0.101600  1.0  0.1306
  H  H11  1  0.068300  0.111900  0.202100  1.0  0.0963
  H  H12  1  0.121600  0.834800  0.156800  1.0  0.1164
  H  H13  1  0.051400  0.718300  0.890300  1.0  0.1174
  H  H14  1  0.921800  0.771200  0.975000  1.0  0.1374
  H  H15  1  0.679900  0.446000  0.430400  1.0  0.1196
  H  H16  1  0.496000  0.501900  0.101600  1.0  0.1306
  H  H17  1  0.568300  0.611900  0.202100  1.0  0.0963
  H  H18  1  0.621600  0.334800  0.156800  1.0  0.1164
  H  H19  1  0.551400  0.218300  0.890300  1.0  0.1174
  H  H20  1  0.421800  0.271200  0.975000  1.0  0.1374
  H  H21  1  0.820100  0.946000  0.069600  1.0  0.1201
  H  H22  1  0.004000  0.001900  0.398400  1.0  0.1307
  H  H23  1  0.931700  0.111900  0.297900  1.0  0.0959
  H  H24  1  0.878400  0.834800  0.343200  1.0  0.117
  H  H25  1  0.948600  0.718300  0.609700  1.0  0.117
  H  H26  1  0.078200  0.771200  0.525000  1.0  0.1369
  H  H27  1  0.320100  0.446000  0.069600  1.0  0.1201
  H  H28  1  0.504000  0.501900  0.398400  1.0  0.1307
  H  H29  1  0.431700  0.611900  0.297900  1.0  0.0959
  H  H30  1  0.378400  0.334800  0.343200  1.0  0.117
  H  H31  1  0.448600  0.218300  0.609700  1.0  0.117
  H  H32  1  0.578200  0.271200  0.525000  1.0  0.1369
  H  H33  1  0.820100  0.054000  0.569600  1.0  0.1203
  H  H34  1  0.004000  0.998100  0.898400  1.0  0.131
  H  H35  1  0.931700  0.888100  0.797900  1.0  0.0961
  H  H36  1  0.878400  0.165200  0.843200  1.0  0.1171
  H  H37  1  0.948600  0.281700  0.109700  1.0  0.1166
  H  H38  1  0.078200  0.228800  0.025000  1.0  0.1371
  H  H39  1  0.320100  0.554000  0.569600  1.0  0.1203
  H  H40  1  0.504000  0.498100  0.898400  1.0  0.131
  H  H41  1  0.431700  0.388100  0.797900  1.0  0.0961
  H  H42  1  0.378400  0.665200  0.843200  1.0  0.1171
  H  H43  1  0.448600  0.781700  0.109700  1.0  0.1166
  H  H44  1  0.578200  0.728800  0.025000  1.0  0.1371
  H  H45  1  0.179900  0.054000  0.930400  1.0  0.1199
  H  H46  1  0.996000  0.998100  0.601600  1.0  0.1305
  H  H47  1  0.068300  0.888100  0.702100  1.0  0.096
  H  H48  1  0.121600  0.165200  0.656800  1.0  0.1166
  H  H49  1  0.051400  0.281700  0.390300  1.0  0.1176
  H  H50  1  0.921800  0.228800  0.475000  1.0  0.1377
  H  H51  1  0.679900  0.554000  0.930400  1.0  0.1199
  H  H52  1  0.496000  0.498100  0.601600  1.0  0.1305
  H  H53  1  0.568300  0.388100  0.702100  1.0  0.096
  H  H54  1  0.621600  0.665200  0.656800  1.0  0.1166
  H  H55  1  0.551400  0.781700  0.390300  1.0  0.1176
  H  H56  1  0.421800  0.728800  0.475000  1.0  0.1377
  C  C57  1  0.132800  0.039500  0.326500  1.0  -0.1493
  C  C58  1  0.143600  0.957300  0.362700  1.0  -0.0795
  C  C59  1  0.102400  0.891100  0.302500  1.0  -0.0442
  C  C60  1  0.047900  0.906900  0.203400  1.0  0.2189
  C  C61  1  0.034400  0.990000  0.167500  1.0  -0.16
  C  C62  1  0.077000  0.055400  0.227800  1.0  0.003
  C  C63  1  0.019400  0.810200  0.073500  1.0  0.2834
  C  C64  1  0.085000  0.810600  0.095700  1.0  -0.0876
  C  C65  1  0.097200  0.775300  0.028000  1.0  -0.138
  C  C66  1  0.043500  0.740600  0.937900  1.0  -0.0488
  C  C67  1  0.977700  0.739200  0.918400  1.0  -0.1064
  C  C68  1  0.966200  0.773400  0.987400  1.0  -0.1349
  C  C69  1  0.179700  0.110800  0.390700  1.0  0.7583
  C  C70  1  0.169300  0.774200  0.055300  1.0  0.7444
  C  C71  1  0.919000  0.703800  0.820100  1.0  0.682
  C  C72  1  0.632800  0.539500  0.326500  1.0  -0.1493
  C  C73  1  0.643600  0.457300  0.362700  1.0  -0.0795
  C  C74  1  0.602400  0.391100  0.302500  1.0  -0.0442
  C  C75  1  0.547900  0.406900  0.203400  1.0  0.2189
  C  C76  1  0.534400  0.490000  0.167500  1.0  -0.16
  C  C77  1  0.577000  0.555400  0.227800  1.0  0.003
  C  C78  1  0.519400  0.310200  0.073500  1.0  0.2834
  C  C79  1  0.585000  0.310600  0.095700  1.0  -0.0876
  C  C80  1  0.597200  0.275300  0.028000  1.0  -0.138
  C  C81  1  0.543500  0.240600  0.937900  1.0  -0.0488
  C  C82  1  0.477700  0.239200  0.918400  1.0  -0.1064
  C  C83  1  0.466200  0.273400  0.987400  1.0  -0.1349
  C  C84  1  0.679700  0.610800  0.390700  1.0  0.7583
  C  C85  1  0.669300  0.274200  0.055300  1.0  0.7444
  C  C86  1  0.419000  0.203800  0.820100  1.0  0.682
  C  C87  1  0.867200  0.039500  0.173500  1.0  -0.1479
  C  C88  1  0.856400  0.957300  0.137300  1.0  -0.0777
  C  C89  1  0.897600  0.891100  0.197500  1.0  -0.0441
  C  C90  1  0.952100  0.906900  0.296600  1.0  0.2179
  C  C91  1  0.965600  0.990000  0.332500  1.0  -0.1594
  C  C92  1  0.923000  0.055400  0.272200  1.0  0.0032
  C  C93  1  0.980600  0.810200  0.426500  1.0  0.2836
  C  C94  1  0.915000  0.810600  0.404300  1.0  -0.0879
  C  C95  1  0.902800  0.775300  0.472000  1.0  -0.1385
  C  C96  1  0.956500  0.740600  0.562100  1.0  -0.0496
  C  C97  1  0.022300  0.739200  0.581600  1.0  -0.1067
  C  C98  1  0.033800  0.773400  0.512600  1.0  -0.1333
  C  C99  1  0.820300  0.110800  0.109300  1.0  0.7612
  C  C100  1  0.830700  0.774200  0.444700  1.0  0.7451
  C  C101  1  0.081000  0.703800  0.679900  1.0  0.6849
  C  C102  1  0.367200  0.539500  0.173500  1.0  -0.1479
  C  C103  1  0.356400  0.457300  0.137300  1.0  -0.0777
  C  C104  1  0.397600  0.391100  0.197500  1.0  -0.0441
  C  C105  1  0.452100  0.406900  0.296600  1.0  0.2179
  C  C106  1  0.465600  0.490000  0.332500  1.0  -0.1594
  C  C107  1  0.423000  0.555400  0.272200  1.0  0.0032
  C  C108  1  0.480600  0.310200  0.426500  1.0  0.2836
  C  C109  1  0.415000  0.310600  0.404300  1.0  -0.0879
  C  C110  1  0.402800  0.275300  0.472000  1.0  -0.1385
  C  C111  1  0.456500  0.240600  0.562100  1.0  -0.0496
  C  C112  1  0.522300  0.239200  0.581600  1.0  -0.1067
  C  C113  1  0.533800  0.273400  0.512600  1.0  -0.1333
  C  C114  1  0.320300  0.610800  0.109300  1.0  0.7612
  C  C115  1  0.330700  0.274200  0.444700  1.0  0.7451
  C  C116  1  0.581000  0.203800  0.679900  1.0  0.6849
  C  C117  1  0.867200  0.960500  0.673500  1.0  -0.1487
  C  C118  1  0.856400  0.042700  0.637300  1.0  -0.0777
  C  C119  1  0.897600  0.108900  0.697500  1.0  -0.0436
  C  C120  1  0.952100  0.093100  0.796600  1.0  0.2179
  C  C121  1  0.965600  0.010000  0.832500  1.0  -0.1589
  C  C122  1  0.923000  0.944600  0.772200  1.0  0.0017
  C  C123  1  0.980600  0.189800  0.926500  1.0  0.284
  C  C124  1  0.915000  0.189400  0.904300  1.0  -0.0877
  C  C125  1  0.902800  0.224700  0.972000  1.0  -0.1373
  C  C126  1  0.956500  0.259400  0.062100  1.0  -0.0497
  C  C127  1  0.022300  0.260800  0.081600  1.0  -0.1077
  C  C128  1  0.033800  0.226600  0.012600  1.0  -0.1343
  C  C129  1  0.820300  0.889200  0.609300  1.0  0.7601
  C  C130  1  0.830700  0.225800  0.944700  1.0  0.7451
  C  C131  1  0.081000  0.296200  0.179900  1.0  0.6837
  C  C132  1  0.367200  0.460500  0.673500  1.0  -0.1487
  C  C133  1  0.356400  0.542700  0.637300  1.0  -0.0777
  C  C134  1  0.397600  0.608900  0.697500  1.0  -0.0436
  C  C135  1  0.452100  0.593100  0.796600  1.0  0.2179
  C  C136  1  0.465600  0.510000  0.832500  1.0  -0.1589
  C  C137  1  0.423000  0.444600  0.772200  1.0  0.0017
  C  C138  1  0.480600  0.689800  0.926500  1.0  0.284
  C  C139  1  0.415000  0.689400  0.904300  1.0  -0.0877
  C  C140  1  0.402800  0.724700  0.972000  1.0  -0.1373
  C  C141  1  0.456500  0.759400  0.062100  1.0  -0.0497
  C  C142  1  0.522300  0.760800  0.081600  1.0  -0.1077
  C  C143  1  0.533800  0.726600  0.012600  1.0  -0.1343
  C  C144  1  0.320300  0.389200  0.609300  1.0  0.7601
  C  C145  1  0.330700  0.725800  0.944700  1.0  0.7451
  C  C146  1  0.581000  0.796200  0.179900  1.0  0.6837
  C  C147  1  0.132800  0.960500  0.826500  1.0  -0.1495
  C  C148  1  0.143600  0.042700  0.862700  1.0  -0.0798
  C  C149  1  0.102400  0.108900  0.802500  1.0  -0.0439
  C  C150  1  0.047900  0.093100  0.703400  1.0  0.2191
  C  C151  1  0.034400  0.010000  0.667500  1.0  -0.1597
  C  C152  1  0.077000  0.944600  0.727800  1.0  0.0022
  C  C153  1  0.019400  0.189800  0.573500  1.0  0.2838
  C  C154  1  0.085000  0.189400  0.595700  1.0  -0.0873
  C  C155  1  0.097200  0.224700  0.528000  1.0  -0.1374
  C  C156  1  0.043500  0.259400  0.437900  1.0  -0.048
  C  C157  1  0.977700  0.260800  0.418400  1.0  -0.1077
  C  C158  1  0.966200  0.226600  0.487400  1.0  -0.1361
  C  C159  1  0.179700  0.889200  0.890700  1.0  0.7581
  C  C160  1  0.169300  0.225800  0.555300  1.0  0.7448
  C  C161  1  0.919000  0.296200  0.320100  1.0  0.6819
  C  C162  1  0.632800  0.460500  0.826500  1.0  -0.1495
  C  C163  1  0.643600  0.542700  0.862700  1.0  -0.0798
  C  C164  1  0.602400  0.608900  0.802500  1.0  -0.0439
  C  C165  1  0.547900  0.593100  0.703400  1.0  0.2191
  C  C166  1  0.534400  0.510000  0.667500  1.0  -0.1597
  C  C167  1  0.577000  0.444600  0.727800  1.0  0.0022
  C  C168  1  0.519400  0.689800  0.573500  1.0  0.2838
  C  C169  1  0.585000  0.689400  0.595700  1.0  -0.0873
  C  C170  1  0.597200  0.724700  0.528000  1.0  -0.1374
  C  C171  1  0.543500  0.759400  0.437900  1.0  -0.048
  C  C172  1  0.477700  0.760800  0.418400  1.0  -0.1077
  C  C173  1  0.466200  0.726600  0.487400  1.0  -0.1361
  C  C174  1  0.679700  0.389200  0.890700  1.0  0.7581
  C  C175  1  0.669300  0.725800  0.555300  1.0  0.7448
  C  C176  1  0.419000  0.796200  0.320100  1.0  0.6819
  N  N177  1  0.117700  0.805400  0.344800  1.0  0.6158
  N  N178  1  0.617700  0.305400  0.344800  1.0  0.6158
  N  N179  1  0.882300  0.805400  0.155200  1.0  0.6152
  N  N180  1  0.382300  0.305400  0.155200  1.0  0.6152
  N  N181  1  0.882300  0.194600  0.655200  1.0  0.6187
  N  N182  1  0.382300  0.694600  0.655200  1.0  0.6187
  N  N183  1  0.117700  0.194600  0.844800  1.0  0.617
  N  N184  1  0.617700  0.694600  0.844800  1.0  0.617
  O  O185  1  0.172500  0.179700  0.345600  1.0  -0.7055
  O  O186  1  0.222100  0.095800  0.482100  1.0  -0.7594
  O  O187  1  0.153300  0.799500  0.437000  1.0  -0.3953
  O  O188  1  0.094900  0.743700  0.288800  1.0  -0.3935
  O  O189  1  0.214300  0.812600  0.133000  1.0  -0.6468
  O  O190  1  0.182500  0.734200  0.999500  1.0  -0.835
  O  O191  1  0.929500  0.679000  0.754700  1.0  -0.608
  O  O192  1  0.860500  0.701000  0.804300  1.0  -0.6886
  O  O193  1  0.003500  0.843900  0.138700  1.0  -0.2475
  O  O194  1  0.672500  0.679700  0.345600  1.0  -0.7055
  O  O195  1  0.722100  0.595800  0.482100  1.0  -0.7594
  O  O196  1  0.653300  0.299500  0.437000  1.0  -0.3953
  O  O197  1  0.594900  0.243700  0.288800  1.0  -0.3935
  O  O198  1  0.714300  0.312600  0.133000  1.0  -0.6469
  O  O199  1  0.682500  0.234200  0.999500  1.0  -0.835
  O  O200  1  0.429500  0.179000  0.754700  1.0  -0.608
  O  O201  1  0.360500  0.201000  0.804300  1.0  -0.6886
  O  O202  1  0.503500  0.343900  0.138700  1.0  -0.2475
  O  O203  1  0.827500  0.179700  0.154400  1.0  -0.7066
  O  O204  1  0.777900  0.095800  0.017900  1.0  -0.7613
  O  O205  1  0.846700  0.799500  0.063000  1.0  -0.3917
  O  O206  1  0.905100  0.743700  0.211200  1.0  -0.3938
  O  O207  1  0.785700  0.812600  0.367000  1.0  -0.6467
  O  O208  1  0.817500  0.734200  0.500500  1.0  -0.8364
  O  O209  1  0.070500  0.679000  0.745300  1.0  -0.6098
  O  O210  1  0.139500  0.701000  0.695700  1.0  -0.6904
  O  O211  1  0.996500  0.843900  0.361300  1.0  -0.2473
  O  O212  1  0.327500  0.679700  0.154400  1.0  -0.7066
  O  O213  1  0.277900  0.595800  0.017900  1.0  -0.7613
  O  O214  1  0.346700  0.299500  0.063000  1.0  -0.3917
  O  O215  1  0.405100  0.243700  0.211200  1.0  -0.3938
  O  O216  1  0.285700  0.312600  0.367000  1.0  -0.6466
  O  O217  1  0.317500  0.234200  0.500500  1.0  -0.8364
  O  O218  1  0.570500  0.179000  0.745300  1.0  -0.6098
  O  O219  1  0.639500  0.201000  0.695700  1.0  -0.6904
  O  O220  1  0.496500  0.343900  0.361300  1.0  -0.2473
  O  O221  1  0.827500  0.820300  0.654400  1.0  -0.7059
  O  O222  1  0.777900  0.904200  0.517900  1.0  -0.7617
  O  O223  1  0.846700  0.200500  0.563000  1.0  -0.3926
  O  O224  1  0.905100  0.256300  0.711200  1.0  -0.3956
  O  O225  1  0.785700  0.187400  0.867000  1.0  -0.6463
  O  O226  1  0.817500  0.265800  0.000500  1.0  -0.8368
  O  O227  1  0.070500  0.321000  0.245300  1.0  -0.6058
  O  O228  1  0.139500  0.299000  0.195700  1.0  -0.6922
  O  O229  1  0.996500  0.156100  0.861300  1.0  -0.2472
  O  O230  1  0.327500  0.320300  0.654400  1.0  -0.7059
  O  O231  1  0.277900  0.404200  0.517900  1.0  -0.7617
  O  O232  1  0.346700  0.700500  0.563000  1.0  -0.3926
  O  O233  1  0.405100  0.756300  0.711200  1.0  -0.3956
  O  O234  1  0.285700  0.687400  0.867000  1.0  -0.6461
  O  O235  1  0.317500  0.765800  0.000500  1.0  -0.8368
  O  O236  1  0.570500  0.821000  0.245300  1.0  -0.6058
  O  O237  1  0.639500  0.799000  0.195700  1.0  -0.6922
  O  O238  1  0.496500  0.656100  0.861300  1.0  -0.2472
  O  O239  1  0.172500  0.820300  0.845600  1.0  -0.7059
  O  O240  1  0.222100  0.904200  0.982100  1.0  -0.7604
  O  O241  1  0.153300  0.200500  0.937000  1.0  -0.3942
  O  O242  1  0.094900  0.256300  0.788800  1.0  -0.3939
  O  O243  1  0.214300  0.187400  0.633000  1.0  -0.6461
  O  O244  1  0.182500  0.265800  0.499500  1.0  -0.8362
  O  O245  1  0.929500  0.321000  0.254700  1.0  -0.6057
  O  O246  1  0.860500  0.299000  0.304300  1.0  -0.6896
  O  O247  1  0.003500  0.156100  0.638700  1.0  -0.2472
  O  O248  1  0.672500  0.320300  0.845600  1.0  -0.7059
  O  O249  1  0.722100  0.404200  0.982100  1.0  -0.7604
  O  O250  1  0.653300  0.700500  0.937000  1.0  -0.3942
  O  O251  1  0.594900  0.756300  0.788800  1.0  -0.3939
  O  O252  1  0.714300  0.687400  0.633000  1.0  -0.6461
  O  O253  1  0.682500  0.765800  0.499500  1.0  -0.8362
  O  O254  1  0.429500  0.821000  0.254700  1.0  -0.6057
  O  O255  1  0.360500  0.799000  0.304300  1.0  -0.6896
  O  O256  1  0.503500  0.656100  0.638700  1.0  -0.2472
