# generated using pymatgen
data_GdH6C15NO9
_symmetry_space_group_name_H-M   'P 1'
_cell_length_a   23.56190000
_cell_length_b   15.67140000
_cell_length_c   16.11580000
_cell_angle_alpha   90.00000000
_cell_angle_beta   124.23800000
_cell_angle_gamma   90.00000000
_symmetry_Int_Tables_number   1
_chemical_formula_structural   GdH6C15NO9
_chemical_formula_sum   'Gd8 H48 C120 N8 O72'
_cell_volume   4919.51065880
_cell_formula_units_Z   8
loop_
 _symmetry_equiv_pos_site_id
 _symmetry_equiv_pos_as_xyz
  1  'x, y, z'
loop_
 _atom_site_type_symbol
 _atom_site_label
 _atom_site_symmetry_multiplicity
 _atom_site_fract_x
 _atom_site_fract_y
 _atom_site_fract_z
 _atom_site_occupancy
 _atom_site_charge
  Gd  Gd1  1  0.689700  0.672130  0.877760  1.0  2.1783
  Gd  Gd2  1  0.189700  0.172130  0.877760  1.0  2.1835
  Gd  Gd3  1  0.310300  0.672130  0.622240  1.0  2.184
  Gd  Gd4  1  0.810300  0.172130  0.622240  1.0  2.1842
  Gd  Gd5  1  0.310300  0.327870  0.122240  1.0  2.1714
  Gd  Gd6  1  0.810300  0.827870  0.122240  1.0  2.1786
  Gd  Gd7  1  0.689700  0.327870  0.377760  1.0  2.178
  Gd  Gd8  1  0.189700  0.827870  0.377760  1.0  2.1822
  H  H9  1  0.447000  0.719700  0.608200  1.0  0.1146
  H  H10  1  0.579200  0.770100  0.528100  1.0  0.1315
  H  H11  1  0.379000  0.836000  0.343400  1.0  0.1149
  H  H12  1  0.321100  0.944300  0.070700  1.0  0.1225
  H  H13  1  0.434000  0.110600  0.298000  1.0  0.0941
  H  H14  1  0.504800  0.999500  0.399300  1.0  0.1344
  H  H15  1  0.947000  0.219700  0.608200  1.0  0.1146
  H  H16  1  0.079200  0.270100  0.528100  1.0  0.1315
  H  H17  1  0.879000  0.336000  0.343400  1.0  0.1149
  H  H18  1  0.821100  0.444300  0.070700  1.0  0.1225
  H  H19  1  0.934000  0.610600  0.298000  1.0  0.0941
  H  H20  1  0.004800  0.499500  0.399300  1.0  0.1344
  H  H21  1  0.553000  0.719700  0.891800  1.0  0.1156
  H  H22  1  0.420800  0.770100  0.971900  1.0  0.1318
  H  H23  1  0.621000  0.836000  0.156600  1.0  0.1146
  H  H24  1  0.678900  0.944300  0.429300  1.0  0.1223
  H  H25  1  0.566000  0.110600  0.202000  1.0  0.0947
  H  H26  1  0.495200  0.999500  0.100700  1.0  0.1345
  H  H27  1  0.053000  0.219700  0.891800  1.0  0.1156
  H  H28  1  0.920800  0.270100  0.971900  1.0  0.1318
  H  H29  1  0.121000  0.336000  0.156600  1.0  0.1146
  H  H30  1  0.178900  0.444300  0.429300  1.0  0.1223
  H  H31  1  0.066000  0.610600  0.202000  1.0  0.0947
  H  H32  1  0.995200  0.499500  0.100700  1.0  0.1345
  H  H33  1  0.553000  0.280300  0.391800  1.0  0.1152
  H  H34  1  0.420800  0.229900  0.471900  1.0  0.1319
  H  H35  1  0.621000  0.164000  0.656600  1.0  0.1149
  H  H36  1  0.678900  0.055700  0.929300  1.0  0.1226
  H  H37  1  0.566000  0.889400  0.702000  1.0  0.0946
  H  H38  1  0.495200  0.000500  0.600700  1.0  0.1344
  H  H39  1  0.053000  0.780300  0.391800  1.0  0.1152
  H  H40  1  0.920800  0.729900  0.471900  1.0  0.1319
  H  H41  1  0.121000  0.664000  0.656600  1.0  0.1149
  H  H42  1  0.178900  0.555700  0.929300  1.0  0.1226
  H  H43  1  0.066000  0.389400  0.702000  1.0  0.0946
  H  H44  1  0.995200  0.500500  0.600700  1.0  0.1344
  H  H45  1  0.447000  0.280300  0.108200  1.0  0.1149
  H  H46  1  0.579200  0.229900  0.028100  1.0  0.1316
  H  H47  1  0.379000  0.164000  0.843400  1.0  0.1152
  H  H48  1  0.321100  0.055700  0.570700  1.0  0.1228
  H  H49  1  0.434000  0.889400  0.798000  1.0  0.0941
  H  H50  1  0.504800  0.000500  0.899300  1.0  0.1347
  H  H51  1  0.947000  0.780300  0.108200  1.0  0.1149
  H  H52  1  0.079200  0.729900  0.028100  1.0  0.1316
  H  H53  1  0.879000  0.664000  0.843400  1.0  0.1152
  H  H54  1  0.821100  0.555700  0.570700  1.0  0.1228
  H  H55  1  0.934000  0.389400  0.798000  1.0  0.0941
  H  H56  1  0.004800  0.500500  0.899300  1.0  0.1347
  C  C57  1  0.402500  0.775900  0.471100  1.0  -0.1384
  C  C58  1  0.455600  0.741400  0.561200  1.0  -0.0479
  C  C59  1  0.521500  0.738700  0.582300  1.0  -0.1245
  C  C60  1  0.534300  0.772300  0.514200  1.0  -0.099
  C  C61  1  0.481400  0.808700  0.426700  1.0  0.2632
  C  C62  1  0.415200  0.810800  0.404100  1.0  -0.1091
  C  C63  1  0.453600  0.905300  0.297900  1.0  0.2304
  C  C64  1  0.399200  0.889600  0.199100  1.0  -0.0448
  C  C65  1  0.357700  0.955600  0.138100  1.0  -0.069
  C  C66  1  0.369300  0.038300  0.174800  1.0  -0.1607
  C  C67  1  0.424800  0.054000  0.272500  1.0  -0.0049
  C  C68  1  0.466700  0.987800  0.333000  1.0  -0.1506
  C  C69  1  0.329700  0.776600  0.442100  1.0  0.7503
  C  C70  1  0.580000  0.703000  0.679500  1.0  0.6794
  C  C71  1  0.321500  0.109400  0.111000  1.0  0.7797
  C  C72  1  0.902500  0.275900  0.471100  1.0  -0.1384
  C  C73  1  0.955600  0.241400  0.561200  1.0  -0.0479
  C  C74  1  0.021500  0.238700  0.582300  1.0  -0.1245
  C  C75  1  0.034300  0.272300  0.514200  1.0  -0.099
  C  C76  1  0.981400  0.308700  0.426700  1.0  0.2632
  C  C77  1  0.915200  0.310800  0.404100  1.0  -0.1091
  C  C78  1  0.953600  0.405300  0.297900  1.0  0.2304
  C  C79  1  0.899200  0.389600  0.199100  1.0  -0.0448
  C  C80  1  0.857700  0.455600  0.138100  1.0  -0.069
  C  C81  1  0.869300  0.538300  0.174800  1.0  -0.1607
  C  C82  1  0.924800  0.554000  0.272500  1.0  -0.0049
  C  C83  1  0.966700  0.487800  0.333000  1.0  -0.1506
  C  C84  1  0.829700  0.276600  0.442100  1.0  0.7503
  C  C85  1  0.080000  0.203000  0.679500  1.0  0.6794
  C  C86  1  0.821500  0.609400  0.111000  1.0  0.7797
  C  C87  1  0.597500  0.775900  0.028900  1.0  -0.1372
  C  C88  1  0.544400  0.741400  0.938800  1.0  -0.047
  C  C89  1  0.478500  0.738700  0.917700  1.0  -0.1242
  C  C90  1  0.465700  0.772300  0.985800  1.0  -0.1002
  C  C91  1  0.518600  0.808700  0.073300  1.0  0.2627
  C  C92  1  0.584800  0.810800  0.095900  1.0  -0.11
  C  C93  1  0.546400  0.905300  0.202100  1.0  0.2316
  C  C94  1  0.600800  0.889600  0.300900  1.0  -0.0438
  C  C95  1  0.642300  0.955600  0.361900  1.0  -0.0708
  C  C96  1  0.630700  0.038300  0.325200  1.0  -0.1635
  C  C97  1  0.575200  0.054000  0.227500  1.0  -0.0053
  C  C98  1  0.533300  0.987800  0.167000  1.0  -0.1517
  C  C99  1  0.670300  0.776600  0.057900  1.0  0.7484
  C  C100  1  0.420000  0.703000  0.820500  1.0  0.6777
  C  C101  1  0.678500  0.109400  0.389000  1.0  0.7775
  C  C102  1  0.097500  0.275900  0.028900  1.0  -0.1372
  C  C103  1  0.044400  0.241400  0.938800  1.0  -0.047
  C  C104  1  0.978500  0.238700  0.917700  1.0  -0.1242
  C  C105  1  0.965700  0.272300  0.985800  1.0  -0.1002
  C  C106  1  0.018600  0.308700  0.073300  1.0  0.2627
  C  C107  1  0.084800  0.310800  0.095900  1.0  -0.11
  C  C108  1  0.046400  0.405300  0.202100  1.0  0.2316
  C  C109  1  0.100800  0.389600  0.300900  1.0  -0.0438
  C  C110  1  0.142300  0.455600  0.361900  1.0  -0.0708
  C  C111  1  0.130700  0.538300  0.325200  1.0  -0.1635
  C  C112  1  0.075200  0.554000  0.227500  1.0  -0.0053
  C  C113  1  0.033300  0.487800  0.167000  1.0  -0.1517
  C  C114  1  0.170300  0.276600  0.057900  1.0  0.7484
  C  C115  1  0.920000  0.203000  0.820500  1.0  0.6777
  C  C116  1  0.178500  0.609400  0.389000  1.0  0.7775
  C  C117  1  0.597500  0.224100  0.528900  1.0  -0.1365
  C  C118  1  0.544400  0.258600  0.438800  1.0  -0.0471
  C  C119  1  0.478500  0.261300  0.417700  1.0  -0.1255
  C  C120  1  0.465700  0.227700  0.485800  1.0  -0.1011
  C  C121  1  0.518600  0.191300  0.573300  1.0  0.2632
  C  C122  1  0.584800  0.189200  0.595900  1.0  -0.1098
  C  C123  1  0.546400  0.094700  0.702100  1.0  0.2315
  C  C124  1  0.600800  0.110400  0.800900  1.0  -0.0442
  C  C125  1  0.642300  0.044400  0.861900  1.0  -0.0715
  C  C126  1  0.630700  0.961700  0.825200  1.0  -0.1624
  C  C127  1  0.575200  0.946000  0.727500  1.0  -0.0054
  C  C128  1  0.533300  0.012200  0.667000  1.0  -0.1515
  C  C129  1  0.670300  0.223400  0.557900  1.0  0.7488
  C  C130  1  0.420000  0.297000  0.320500  1.0  0.6782
  C  C131  1  0.678500  0.890600  0.889000  1.0  0.777
  C  C132  1  0.097500  0.724100  0.528900  1.0  -0.1365
  C  C133  1  0.044400  0.758600  0.438800  1.0  -0.0471
  C  C134  1  0.978500  0.761300  0.417700  1.0  -0.1255
  C  C135  1  0.965700  0.727700  0.485800  1.0  -0.1011
  C  C136  1  0.018600  0.691300  0.573300  1.0  0.2632
  C  C137  1  0.084800  0.689200  0.595900  1.0  -0.1098
  C  C138  1  0.046400  0.594700  0.702100  1.0  0.2315
  C  C139  1  0.100800  0.610400  0.800900  1.0  -0.0442
  C  C140  1  0.142300  0.544400  0.861900  1.0  -0.0715
  C  C141  1  0.130700  0.461700  0.825200  1.0  -0.1624
  C  C142  1  0.075200  0.446000  0.727500  1.0  -0.0054
  C  C143  1  0.033300  0.512200  0.667000  1.0  -0.1515
  C  C144  1  0.170300  0.723400  0.557900  1.0  0.7488
  C  C145  1  0.920000  0.797000  0.320500  1.0  0.6782
  C  C146  1  0.178500  0.390600  0.889000  1.0  0.777
  C  C147  1  0.402500  0.224100  0.971100  1.0  -0.1372
  C  C148  1  0.455600  0.258600  0.061200  1.0  -0.0486
  C  C149  1  0.521500  0.261300  0.082300  1.0  -0.1257
  C  C150  1  0.534300  0.227700  0.014200  1.0  -0.0993
  C  C151  1  0.481400  0.191300  0.926700  1.0  0.2635
  C  C152  1  0.415200  0.189200  0.904100  1.0  -0.109
  C  C153  1  0.453600  0.094700  0.797900  1.0  0.2302
  C  C154  1  0.399200  0.110400  0.699100  1.0  -0.0452
  C  C155  1  0.357700  0.044400  0.638100  1.0  -0.0691
  C  C156  1  0.369300  0.961700  0.674800  1.0  -0.1604
  C  C157  1  0.424800  0.946000  0.772500  1.0  -0.0055
  C  C158  1  0.466700  0.012200  0.833000  1.0  -0.1508
  C  C159  1  0.329700  0.223400  0.942100  1.0  0.7502
  C  C160  1  0.580000  0.297000  0.179500  1.0  0.6789
  C  C161  1  0.321500  0.890600  0.611000  1.0  0.7789
  C  C162  1  0.902500  0.724100  0.971100  1.0  -0.1372
  C  C163  1  0.955600  0.758600  0.061200  1.0  -0.0486
  C  C164  1  0.021500  0.761300  0.082300  1.0  -0.1257
  C  C165  1  0.034300  0.727700  0.014200  1.0  -0.0993
  C  C166  1  0.981400  0.691300  0.926700  1.0  0.2635
  C  C167  1  0.915200  0.689200  0.904100  1.0  -0.109
  C  C168  1  0.953600  0.594700  0.797900  1.0  0.2302
  C  C169  1  0.899200  0.610400  0.699100  1.0  -0.0452
  C  C170  1  0.857700  0.544400  0.638100  1.0  -0.0691
  C  C171  1  0.869300  0.461700  0.674800  1.0  -0.1604
  C  C172  1  0.924800  0.446000  0.772500  1.0  -0.0055
  C  C173  1  0.966700  0.512200  0.833000  1.0  -0.1508
  C  C174  1  0.829700  0.723400  0.942100  1.0  0.7502
  C  C175  1  0.080000  0.797000  0.179500  1.0  0.6789
  C  C176  1  0.821500  0.390600  0.611000  1.0  0.7789
  N  N177  1  0.383200  0.803800  0.156200  1.0  0.6087
  N  N178  1  0.883200  0.303800  0.156200  1.0  0.6087
  N  N179  1  0.616800  0.803800  0.343800  1.0  0.61
  N  N180  1  0.116800  0.303800  0.343800  1.0  0.61
  N  N181  1  0.616800  0.196200  0.843800  1.0  0.6116
  N  N182  1  0.116800  0.696200  0.843800  1.0  0.6116
  N  N183  1  0.383200  0.196200  0.656200  1.0  0.613
  N  N184  1  0.883200  0.696200  0.656200  1.0  0.613
  O  O185  1  0.285900  0.816400  0.364700  1.0  -0.6299
  O  O186  1  0.314560  0.737320  0.495500  1.0  -0.8217
  O  O187  1  0.569010  0.678560  0.744400  1.0  -0.6112
  O  O188  1  0.638550  0.699900  0.695900  1.0  -0.6924
  O  O189  1  0.405600  0.742400  0.212000  1.0  -0.3722
  O  O190  1  0.347400  0.797400  0.064200  1.0  -0.3947
  O  O191  1  0.278210  0.093520  0.019600  1.0  -0.7792
  O  O192  1  0.329510  0.178430  0.154900  1.0  -0.7033
  O  O193  1  0.497580  0.842200  0.362600  1.0  -0.2484
  O  O194  1  0.785900  0.316400  0.364700  1.0  -0.6305
  O  O195  1  0.814560  0.237320  0.495500  1.0  -0.8217
  O  O196  1  0.069010  0.178560  0.744400  1.0  -0.6112
  O  O197  1  0.138550  0.199900  0.695900  1.0  -0.6924
  O  O198  1  0.905600  0.242400  0.212000  1.0  -0.3722
  O  O199  1  0.847400  0.297400  0.064200  1.0  -0.3947
  O  O200  1  0.778210  0.593520  0.019600  1.0  -0.7792
  O  O201  1  0.829510  0.678430  0.154900  1.0  -0.7033
  O  O202  1  0.997580  0.342200  0.362600  1.0  -0.2484
  O  O203  1  0.714100  0.816400  0.135300  1.0  -0.6302
  O  O204  1  0.685440  0.737320  0.004500  1.0  -0.8206
  O  O205  1  0.430990  0.678560  0.755600  1.0  -0.6093
  O  O206  1  0.361450  0.699900  0.804100  1.0  -0.691
  O  O207  1  0.594400  0.742400  0.288000  1.0  -0.3717
  O  O208  1  0.652600  0.797400  0.435800  1.0  -0.3981
  O  O209  1  0.721790  0.093520  0.480400  1.0  -0.7793
  O  O210  1  0.670490  0.178430  0.345100  1.0  -0.7026
  O  O211  1  0.502420  0.842200  0.137400  1.0  -0.2485
  O  O212  1  0.214100  0.316400  0.135300  1.0  -0.6309
  O  O213  1  0.185440  0.237320  0.004500  1.0  -0.8206
  O  O214  1  0.930990  0.178560  0.755600  1.0  -0.6093
  O  O215  1  0.861450  0.199900  0.804100  1.0  -0.691
  O  O216  1  0.094400  0.242400  0.288000  1.0  -0.3717
  O  O217  1  0.152600  0.297400  0.435800  1.0  -0.3981
  O  O218  1  0.221790  0.593520  0.480400  1.0  -0.7793
  O  O219  1  0.170490  0.678430  0.345100  1.0  -0.7026
  O  O220  1  0.002420  0.342200  0.137400  1.0  -0.2485
  O  O221  1  0.714100  0.183600  0.635300  1.0  -0.6307
  O  O222  1  0.685440  0.262680  0.504500  1.0  -0.8204
  O  O223  1  0.430990  0.321440  0.255600  1.0  -0.6067
  O  O224  1  0.361450  0.300100  0.304100  1.0  -0.691
  O  O225  1  0.594400  0.257600  0.788000  1.0  -0.3722
  O  O226  1  0.652600  0.202600  0.935800  1.0  -0.3967
  O  O227  1  0.721790  0.906480  0.980400  1.0  -0.7806
  O  O228  1  0.670490  0.821570  0.845100  1.0  -0.7033
  O  O229  1  0.502420  0.157800  0.637400  1.0  -0.2478
  O  O230  1  0.214100  0.683600  0.635300  1.0  -0.6306
  O  O231  1  0.185440  0.762680  0.504500  1.0  -0.8204
  O  O232  1  0.930990  0.821440  0.255600  1.0  -0.6067
  O  O233  1  0.861450  0.800100  0.304100  1.0  -0.691
  O  O234  1  0.094400  0.757600  0.788000  1.0  -0.3722
  O  O235  1  0.152600  0.702600  0.935800  1.0  -0.3967
  O  O236  1  0.221790  0.406480  0.980400  1.0  -0.7806
  O  O237  1  0.170490  0.321570  0.845100  1.0  -0.7033
  O  O238  1  0.002420  0.657800  0.637400  1.0  -0.2478
  O  O239  1  0.285900  0.183600  0.864700  1.0  -0.6305
  O  O240  1  0.314560  0.262680  0.995500  1.0  -0.8218
  O  O241  1  0.569010  0.321440  0.244400  1.0  -0.6071
  O  O242  1  0.638550  0.300100  0.195900  1.0  -0.6936
  O  O243  1  0.405600  0.257600  0.712000  1.0  -0.374
  O  O244  1  0.347400  0.202600  0.564200  1.0  -0.395
  O  O245  1  0.278210  0.906480  0.519600  1.0  -0.7802
  O  O246  1  0.329510  0.821570  0.654900  1.0  -0.7041
  O  O247  1  0.497580  0.157800  0.862600  1.0  -0.248
  O  O248  1  0.785900  0.683600  0.864700  1.0  -0.6301
  O  O249  1  0.814560  0.762680  0.995500  1.0  -0.8218
  O  O250  1  0.069010  0.821440  0.244400  1.0  -0.6071
  O  O251  1  0.138550  0.800100  0.195900  1.0  -0.6936
  O  O252  1  0.905600  0.757600  0.712000  1.0  -0.374
  O  O253  1  0.847400  0.702600  0.564200  1.0  -0.395
  O  O254  1  0.778210  0.406480  0.519600  1.0  -0.7802
  O  O255  1  0.829510  0.321570  0.654900  1.0  -0.7041
  O  O256  1  0.997580  0.657800  0.862600  1.0  -0.248
