# generated using pymatgen
data_EuH6C15NO9
_symmetry_space_group_name_H-M   'P 1'
_cell_length_a   23.58490000
_cell_length_b   15.70310000
_cell_length_c   16.13710000
_cell_angle_alpha   90.00000000
_cell_angle_beta   124.27400000
_cell_angle_gamma   90.00000000
_symmetry_Int_Tables_number   1
_chemical_formula_structural   EuH6C15NO9
_chemical_formula_sum   'Eu8 H48 C120 N8 O72'
_cell_volume   4938.68153834
_cell_formula_units_Z   8
loop_
 _symmetry_equiv_pos_site_id
 _symmetry_equiv_pos_as_xyz
  1  'x, y, z'
loop_
 _atom_site_type_symbol
 _atom_site_label
 _atom_site_symmetry_multiplicity
 _atom_site_fract_x
 _atom_site_fract_y
 _atom_site_fract_z
 _atom_site_occupancy
 _atom_site_charge
  Eu  Eu1  1  0.810390  0.327980  0.621900  1.0  2.1321
  Eu  Eu2  1  0.310390  0.827980  0.621900  1.0  2.1354
  Eu  Eu3  1  0.189610  0.327980  0.878100  1.0  2.1353
  Eu  Eu4  1  0.689610  0.827980  0.878100  1.0  2.136
  Eu  Eu5  1  0.189610  0.672020  0.378100  1.0  2.126
  Eu  Eu6  1  0.689610  0.172020  0.378100  1.0  2.1317
  Eu  Eu7  1  0.810390  0.672020  0.121900  1.0  2.1308
  Eu  Eu8  1  0.310390  0.172020  0.121900  1.0  2.1328
  H  H9  1  0.178700  0.055600  0.428600  1.0  0.1164
  H  H10  1  0.994900  0.000900  0.100400  1.0  0.1329
  H  H11  1  0.064600  0.890200  0.200900  1.0  0.0939
  H  H12  1  0.921000  0.230200  0.972000  1.0  0.1327
  H  H13  1  0.053500  0.280300  0.892600  1.0  0.1178
  H  H14  1  0.120600  0.163300  0.156500  1.0  0.1116
  H  H15  1  0.678700  0.555600  0.428600  1.0  0.1164
  H  H16  1  0.494900  0.500900  0.100400  1.0  0.1329
  H  H17  1  0.564600  0.390200  0.200900  1.0  0.0939
  H  H18  1  0.421000  0.730200  0.972000  1.0  0.1327
  H  H19  1  0.553500  0.780300  0.892600  1.0  0.1178
  H  H20  1  0.620600  0.663300  0.156500  1.0  0.1116
  H  H21  1  0.821300  0.055600  0.071400  1.0  0.1162
  H  H22  1  0.005100  0.000900  0.399600  1.0  0.1332
  H  H23  1  0.935400  0.890200  0.299100  1.0  0.0936
  H  H24  1  0.079000  0.230200  0.528000  1.0  0.1326
  H  H25  1  0.946500  0.280300  0.607400  1.0  0.1179
  H  H26  1  0.879400  0.163300  0.343500  1.0  0.1116
  H  H27  1  0.321300  0.555600  0.071400  1.0  0.1162
  H  H28  1  0.505100  0.500900  0.399600  1.0  0.1332
  H  H29  1  0.435400  0.390200  0.299100  1.0  0.0936
  H  H30  1  0.579000  0.730200  0.528000  1.0  0.1326
  H  H31  1  0.446500  0.780300  0.607400  1.0  0.1179
  H  H32  1  0.379400  0.663300  0.343500  1.0  0.1116
  H  H33  1  0.821300  0.944400  0.571400  1.0  0.1159
  H  H34  1  0.005100  0.999100  0.899600  1.0  0.1329
  H  H35  1  0.935400  0.109800  0.799100  1.0  0.094
  H  H36  1  0.079000  0.769800  0.028000  1.0  0.1327
  H  H37  1  0.946500  0.719700  0.107400  1.0  0.1178
  H  H38  1  0.879400  0.836700  0.843500  1.0  0.1116
  H  H39  1  0.321300  0.444400  0.571400  1.0  0.1159
  H  H40  1  0.505100  0.499100  0.899600  1.0  0.1329
  H  H41  1  0.435400  0.609800  0.799100  1.0  0.094
  H  H42  1  0.579000  0.269800  0.028000  1.0  0.1327
  H  H43  1  0.446500  0.219700  0.107400  1.0  0.1178
  H  H44  1  0.379400  0.336700  0.843500  1.0  0.1116
  H  H45  1  0.178700  0.944400  0.928600  1.0  0.1161
  H  H46  1  0.994900  0.999100  0.600400  1.0  0.1331
  H  H47  1  0.064600  0.109800  0.700900  1.0  0.0945
  H  H48  1  0.921000  0.769800  0.472000  1.0  0.1325
  H  H49  1  0.053500  0.719700  0.392600  1.0  0.1182
  H  H50  1  0.120600  0.836700  0.656500  1.0  0.1115
  H  H51  1  0.678700  0.444400  0.928600  1.0  0.1161
  H  H52  1  0.494900  0.499100  0.600400  1.0  0.1331
  H  H53  1  0.564600  0.609800  0.700900  1.0  0.0945
  H  H54  1  0.421000  0.269800  0.472000  1.0  0.1325
  H  H55  1  0.553500  0.219700  0.392600  1.0  0.1182
  H  H56  1  0.620600  0.336700  0.656500  1.0  0.1115
  C  C57  1  0.130100  0.961900  0.324900  1.0  -0.155
  C  C58  1  0.141800  0.044400  0.361400  1.0  -0.0678
  C  C59  1  0.100200  0.110800  0.300800  1.0  0.0123
  C  C60  1  0.046000  0.094800  0.201900  1.0  0.2388
  C  C61  1  0.032900  0.012400  0.166800  1.0  -0.1654
  C  C62  1  0.074100  0.946600  0.226600  1.0  -0.0026
  C  C63  1  0.018800  0.191100  0.073700  1.0  0.2862
  C  C64  1  0.965900  0.227900  0.986100  1.0  -0.1028
  C  C65  1  0.978800  0.261600  0.918400  1.0  -0.1127
  C  C66  1  0.044800  0.258700  0.939400  1.0  -0.0583
  C  C67  1  0.097700  0.223700  0.029700  1.0  -0.1346
  C  C68  1  0.084500  0.188800  0.095900  1.0  -0.1151
  C  C69  1  0.177300  0.890800  0.388500  1.0  0.7761
  C  C70  1  0.920300  0.297400  0.820700  1.0  0.677
  C  C71  1  0.170700  0.223000  0.059200  1.0  0.7577
  C  C72  1  0.630100  0.461900  0.324900  1.0  -0.155
  C  C73  1  0.641800  0.544400  0.361400  1.0  -0.0678
  C  C74  1  0.600200  0.610800  0.300800  1.0  0.0123
  C  C75  1  0.546000  0.594800  0.201900  1.0  0.2388
  C  C76  1  0.532900  0.512400  0.166800  1.0  -0.1654
  C  C77  1  0.574100  0.446600  0.226600  1.0  -0.0026
  C  C78  1  0.518800  0.691100  0.073700  1.0  0.2862
  C  C79  1  0.465900  0.727900  0.986100  1.0  -0.1028
  C  C80  1  0.478800  0.761600  0.918400  1.0  -0.1127
  C  C81  1  0.544800  0.758700  0.939400  1.0  -0.0583
  C  C82  1  0.597700  0.723700  0.029700  1.0  -0.1346
  C  C83  1  0.584500  0.688800  0.095900  1.0  -0.1151
  C  C84  1  0.677300  0.390800  0.388500  1.0  0.7761
  C  C85  1  0.420300  0.797400  0.820700  1.0  0.677
  C  C86  1  0.670700  0.723000  0.059200  1.0  0.7577
  C  C87  1  0.869900  0.961900  0.175100  1.0  -0.1555
  C  C88  1  0.858200  0.044400  0.138600  1.0  -0.0657
  C  C89  1  0.899800  0.110800  0.199200  1.0  0.0131
  C  C90  1  0.954000  0.094800  0.298100  1.0  0.2371
  C  C91  1  0.967100  0.012400  0.333200  1.0  -0.1646
  C  C92  1  0.925900  0.946600  0.273400  1.0  -0.0033
  C  C93  1  0.981200  0.191100  0.426300  1.0  0.2864
  C  C94  1  0.034100  0.227900  0.513900  1.0  -0.1007
  C  C95  1  0.021200  0.261600  0.581600  1.0  -0.1134
  C  C96  1  0.955200  0.258700  0.560600  1.0  -0.0603
  C  C97  1  0.902300  0.223700  0.470300  1.0  -0.1345
  C  C98  1  0.915500  0.188800  0.404100  1.0  -0.1143
  C  C99  1  0.822700  0.890800  0.111500  1.0  0.7782
  C  C100  1  0.079700  0.297400  0.679300  1.0  0.6774
  C  C101  1  0.829300  0.223000  0.440800  1.0  0.7587
  C  C102  1  0.369900  0.461900  0.175100  1.0  -0.1555
  C  C103  1  0.358200  0.544400  0.138600  1.0  -0.0657
  C  C104  1  0.399800  0.610800  0.199200  1.0  0.0131
  C  C105  1  0.454000  0.594800  0.298100  1.0  0.2371
  C  C106  1  0.467100  0.512400  0.333200  1.0  -0.1646
  C  C107  1  0.425900  0.446600  0.273400  1.0  -0.0033
  C  C108  1  0.481200  0.691100  0.426300  1.0  0.2864
  C  C109  1  0.534100  0.727900  0.513900  1.0  -0.1007
  C  C110  1  0.521200  0.761600  0.581600  1.0  -0.1134
  C  C111  1  0.455200  0.758700  0.560600  1.0  -0.0603
  C  C112  1  0.402300  0.723700  0.470300  1.0  -0.1345
  C  C113  1  0.415500  0.688800  0.404100  1.0  -0.1143
  C  C114  1  0.322700  0.390800  0.111500  1.0  0.7782
  C  C115  1  0.579700  0.797400  0.679300  1.0  0.6774
  C  C116  1  0.329300  0.723000  0.440800  1.0  0.7587
  C  C117  1  0.869900  0.038100  0.675100  1.0  -0.1549
  C  C118  1  0.858200  0.955600  0.638600  1.0  -0.0658
  C  C119  1  0.899800  0.889200  0.699200  1.0  0.0134
  C  C120  1  0.954000  0.905200  0.798100  1.0  0.2377
  C  C121  1  0.967100  0.987600  0.833200  1.0  -0.1647
  C  C122  1  0.925900  0.053400  0.773400  1.0  -0.0024
  C  C123  1  0.981200  0.808900  0.926300  1.0  0.2862
  C  C124  1  0.034100  0.772100  0.013900  1.0  -0.1004
  C  C125  1  0.021200  0.738400  0.081600  1.0  -0.1124
  C  C126  1  0.955200  0.741300  0.060600  1.0  -0.0601
  C  C127  1  0.902300  0.776300  0.970300  1.0  -0.1355
  C  C128  1  0.915500  0.811200  0.904100  1.0  -0.1144
  C  C129  1  0.822700  0.109200  0.611500  1.0  0.779
  C  C130  1  0.079700  0.702600  0.179300  1.0  0.6761
  C  C131  1  0.829300  0.777000  0.940800  1.0  0.7588
  C  C132  1  0.369900  0.538100  0.675100  1.0  -0.1549
  C  C133  1  0.358200  0.455600  0.638600  1.0  -0.0658
  C  C134  1  0.399800  0.389200  0.699200  1.0  0.0134
  C  C135  1  0.454000  0.405200  0.798100  1.0  0.2377
  C  C136  1  0.467100  0.487600  0.833200  1.0  -0.1647
  C  C137  1  0.425900  0.553400  0.773400  1.0  -0.0024
  C  C138  1  0.481200  0.308900  0.926300  1.0  0.2862
  C  C139  1  0.534100  0.272100  0.013900  1.0  -0.1004
  C  C140  1  0.521200  0.238400  0.081600  1.0  -0.1124
  C  C141  1  0.455200  0.241300  0.060600  1.0  -0.0601
  C  C142  1  0.402300  0.276300  0.970300  1.0  -0.1355
  C  C143  1  0.415500  0.311200  0.904100  1.0  -0.1144
  C  C144  1  0.322700  0.609200  0.611500  1.0  0.779
  C  C145  1  0.579700  0.202600  0.179300  1.0  0.6761
  C  C146  1  0.329300  0.277000  0.940800  1.0  0.7588
  C  C147  1  0.130100  0.038100  0.824900  1.0  -0.1559
  C  C148  1  0.141800  0.955600  0.861400  1.0  -0.0676
  C  C149  1  0.100200  0.889200  0.800800  1.0  0.0123
  C  C150  1  0.046000  0.905200  0.701900  1.0  0.239
  C  C151  1  0.032900  0.987600  0.666800  1.0  -0.1655
  C  C152  1  0.074100  0.053400  0.726600  1.0  -0.002
  C  C153  1  0.018800  0.808900  0.573700  1.0  0.2858
  C  C154  1  0.965900  0.772100  0.486100  1.0  -0.1021
  C  C155  1  0.978800  0.738400  0.418400  1.0  -0.1114
  C  C156  1  0.044800  0.741300  0.439400  1.0  -0.0589
  C  C157  1  0.097700  0.776300  0.529700  1.0  -0.1345
  C  C158  1  0.084500  0.811200  0.595900  1.0  -0.1155
  C  C159  1  0.177300  0.109200  0.888500  1.0  0.7764
  C  C160  1  0.920300  0.702600  0.320700  1.0  0.674
  C  C161  1  0.170700  0.777000  0.559200  1.0  0.7572
  C  C162  1  0.630100  0.538100  0.824900  1.0  -0.1559
  C  C163  1  0.641800  0.455600  0.861400  1.0  -0.0676
  C  C164  1  0.600200  0.389200  0.800800  1.0  0.0123
  C  C165  1  0.546000  0.405200  0.701900  1.0  0.239
  C  C166  1  0.532900  0.487600  0.666800  1.0  -0.1655
  C  C167  1  0.574100  0.553400  0.726600  1.0  -0.002
  C  C168  1  0.518800  0.308900  0.573700  1.0  0.2858
  C  C169  1  0.465900  0.272100  0.486100  1.0  -0.1021
  C  C170  1  0.478800  0.238400  0.418400  1.0  -0.1114
  C  C171  1  0.544800  0.241300  0.439400  1.0  -0.0589
  C  C172  1  0.597700  0.276300  0.529700  1.0  -0.1345
  C  C173  1  0.584500  0.311200  0.595900  1.0  -0.1155
  C  C174  1  0.677300  0.609200  0.888500  1.0  0.7764
  C  C175  1  0.420300  0.202600  0.320700  1.0  0.674
  C  C176  1  0.670700  0.277000  0.559200  1.0  0.7572
  N  N177  1  0.116600  0.196100  0.343800  1.0  0.6262
  N  N178  1  0.616600  0.696100  0.343800  1.0  0.6262
  N  N179  1  0.883400  0.196100  0.156200  1.0  0.6273
  N  N180  1  0.383400  0.696100  0.156200  1.0  0.6273
  N  N181  1  0.883400  0.803900  0.656200  1.0  0.6236
  N  N182  1  0.383400  0.303900  0.656200  1.0  0.6236
  N  N183  1  0.116600  0.803900  0.843800  1.0  0.626
  N  N184  1  0.616600  0.303900  0.843800  1.0  0.626
  O  O185  1  0.169200  0.821700  0.344600  1.0  -0.707
  O  O186  1  0.221400  0.906800  0.479500  1.0  -0.7795
  O  O187  1  0.152200  0.202200  0.435200  1.0  -0.3923
  O  O188  1  0.094000  0.257100  0.287800  1.0  -0.3572
  O  O189  1  0.213980  0.182300  0.135700  1.0  -0.685
  O  O190  1  0.186140  0.261900  0.006200  1.0  -0.8266
  O  O191  1  0.931670  0.322400  0.756700  1.0  -0.6094
  O  O192  1  0.861790  0.300200  0.804300  1.0  -0.693
  O  O193  1  0.002550  0.158300  0.137800  1.0  -0.2462
  O  O194  1  0.669200  0.321700  0.344600  1.0  -0.707
  O  O195  1  0.721400  0.406800  0.479500  1.0  -0.7795
  O  O196  1  0.652200  0.702200  0.435200  1.0  -0.3923
  O  O197  1  0.594000  0.757100  0.287800  1.0  -0.3572
  O  O198  1  0.713980  0.682300  0.135700  1.0  -0.6861
  O  O199  1  0.686140  0.761900  0.006200  1.0  -0.8266
  O  O200  1  0.431670  0.822400  0.756700  1.0  -0.6094
  O  O201  1  0.361790  0.800200  0.804300  1.0  -0.693
  O  O202  1  0.502550  0.658300  0.137800  1.0  -0.2462
  O  O203  1  0.830800  0.821700  0.155400  1.0  -0.7084
  O  O204  1  0.778600  0.906800  0.020500  1.0  -0.7789
  O  O205  1  0.847800  0.202200  0.064800  1.0  -0.392
  O  O206  1  0.906000  0.257100  0.212200  1.0  -0.3595
  O  O207  1  0.786020  0.182300  0.364300  1.0  -0.6852
  O  O208  1  0.813860  0.261900  0.493800  1.0  -0.8281
  O  O209  1  0.068330  0.322400  0.743300  1.0  -0.609
  O  O210  1  0.138210  0.300200  0.695700  1.0  -0.6962
  O  O211  1  0.997450  0.158300  0.362200  1.0  -0.2473
  O  O212  1  0.330800  0.321700  0.155400  1.0  -0.7084
  O  O213  1  0.278600  0.406800  0.020500  1.0  -0.7789
  O  O214  1  0.347800  0.702200  0.064800  1.0  -0.392
  O  O215  1  0.406000  0.757100  0.212200  1.0  -0.3595
  O  O216  1  0.286020  0.682300  0.364300  1.0  -0.6861
  O  O217  1  0.313860  0.761900  0.493800  1.0  -0.8281
  O  O218  1  0.568330  0.822400  0.743300  1.0  -0.609
  O  O219  1  0.638210  0.800200  0.695700  1.0  -0.6962
  O  O220  1  0.497450  0.658300  0.362200  1.0  -0.2473
  O  O221  1  0.830800  0.178300  0.655400  1.0  -0.7082
  O  O222  1  0.778600  0.093200  0.520500  1.0  -0.7779
  O  O223  1  0.847800  0.797800  0.564800  1.0  -0.3908
  O  O224  1  0.906000  0.742900  0.712200  1.0  -0.357
  O  O225  1  0.786020  0.817700  0.864300  1.0  -0.6857
  O  O226  1  0.813860  0.738100  0.993800  1.0  -0.8269
  O  O227  1  0.068330  0.677600  0.243300  1.0  -0.6119
  O  O228  1  0.138210  0.699800  0.195700  1.0  -0.6947
  O  O229  1  0.997450  0.841700  0.862200  1.0  -0.2474
  O  O230  1  0.330800  0.678300  0.655400  1.0  -0.7082
  O  O231  1  0.278600  0.593200  0.520500  1.0  -0.7779
  O  O232  1  0.347800  0.297800  0.564800  1.0  -0.3908
  O  O233  1  0.406000  0.242900  0.712200  1.0  -0.357
  O  O234  1  0.286020  0.317700  0.864300  1.0  -0.6859
  O  O235  1  0.313860  0.238100  0.993800  1.0  -0.8269
  O  O236  1  0.568330  0.177600  0.243300  1.0  -0.6119
  O  O237  1  0.638210  0.199800  0.195700  1.0  -0.6947
  O  O238  1  0.497450  0.341700  0.862200  1.0  -0.2474
  O  O239  1  0.169200  0.178300  0.844600  1.0  -0.7068
  O  O240  1  0.221400  0.093200  0.979500  1.0  -0.7782
  O  O241  1  0.152200  0.797800  0.935200  1.0  -0.393
  O  O242  1  0.094000  0.742900  0.787800  1.0  -0.356
  O  O243  1  0.213980  0.817700  0.635700  1.0  -0.6857
  O  O244  1  0.186140  0.738100  0.506200  1.0  -0.8254
  O  O245  1  0.931670  0.677600  0.256700  1.0  -0.6113
  O  O246  1  0.861790  0.699800  0.304300  1.0  -0.693
  O  O247  1  0.002550  0.841700  0.637800  1.0  -0.2469
  O  O248  1  0.669200  0.678300  0.844600  1.0  -0.7068
  O  O249  1  0.721400  0.593200  0.979500  1.0  -0.7782
  O  O250  1  0.652200  0.297800  0.935200  1.0  -0.393
  O  O251  1  0.594000  0.242900  0.787800  1.0  -0.356
  O  O252  1  0.713980  0.317700  0.635700  1.0  -0.6861
  O  O253  1  0.686140  0.238100  0.506200  1.0  -0.8254
  O  O254  1  0.431670  0.177600  0.256700  1.0  -0.6113
  O  O255  1  0.361790  0.199800  0.304300  1.0  -0.693
  O  O256  1  0.502550  0.341700  0.637800  1.0  -0.2469
