# generated using pymatgen
data_TbH6C15NO9
_symmetry_space_group_name_H-M   'P 1'
_cell_length_a   23.58620000
_cell_length_b   15.70790000
_cell_length_c   16.09330000
_cell_angle_alpha   90.00000000
_cell_angle_beta   124.16000000
_cell_angle_gamma   90.00000000
_symmetry_Int_Tables_number   1
_chemical_formula_structural   TbH6C15NO9
_chemical_formula_sum   'Tb8 H48 C120 N8 O72'
_cell_volume   4933.72488557
_cell_formula_units_Z   8
loop_
 _symmetry_equiv_pos_site_id
 _symmetry_equiv_pos_as_xyz
  1  'x, y, z'
loop_
 _atom_site_type_symbol
 _atom_site_label
 _atom_site_symmetry_multiplicity
 _atom_site_fract_x
 _atom_site_fract_y
 _atom_site_fract_z
 _atom_site_occupancy
 _atom_site_charge
  Tb  Tb1  1  0.689450  0.827610  0.876870  1.0  2.2287
  Tb  Tb2  1  0.189450  0.327610  0.876870  1.0  2.2327
  Tb  Tb3  1  0.310550  0.827610  0.623130  1.0  2.2328
  Tb  Tb4  1  0.810550  0.327610  0.623130  1.0  2.2341
  Tb  Tb5  1  0.310550  0.172390  0.123130  1.0  2.2236
  Tb  Tb6  1  0.810550  0.672390  0.123130  1.0  2.2273
  Tb  Tb7  1  0.689450  0.172390  0.376870  1.0  2.2263
  Tb  Tb8  1  0.189450  0.672390  0.376870  1.0  2.2301
  H  H9  1  0.320300  0.554600  0.069000  1.0  0.1157
  H  H10  1  0.503200  0.499200  0.398600  1.0  0.1191
  H  H11  1  0.433000  0.388600  0.297100  1.0  0.0921
  H  H12  1  0.378500  0.664800  0.343000  1.0  0.1101
  H  H13  1  0.447900  0.780700  0.608800  1.0  0.1098
  H  H14  1  0.578700  0.729500  0.526100  1.0  0.1278
  H  H15  1  0.820300  0.054600  0.069000  1.0  0.1157
  H  H16  1  0.003200  0.999200  0.398600  1.0  0.1191
  H  H17  1  0.933000  0.888600  0.297100  1.0  0.0921
  H  H18  1  0.878500  0.164800  0.343000  1.0  0.1101
  H  H19  1  0.947900  0.280700  0.608800  1.0  0.1098
  H  H20  1  0.078700  0.229500  0.526100  1.0  0.1278
  H  H21  1  0.679700  0.554600  0.431000  1.0  0.1156
  H  H22  1  0.496800  0.499200  0.101400  1.0  0.1188
  H  H23  1  0.567000  0.388600  0.202900  1.0  0.0924
  H  H24  1  0.621500  0.664800  0.157000  1.0  0.1096
  H  H25  1  0.552100  0.780700  0.891200  1.0  0.1111
  H  H26  1  0.421300  0.729500  0.973900  1.0  0.128
  H  H27  1  0.179700  0.054600  0.431000  1.0  0.1156
  H  H28  1  0.996800  0.999200  0.101400  1.0  0.1188
  H  H29  1  0.067000  0.888600  0.202900  1.0  0.0924
  H  H30  1  0.121500  0.164800  0.157000  1.0  0.1096
  H  H31  1  0.052100  0.280700  0.891200  1.0  0.1111
  H  H32  1  0.921300  0.229500  0.973900  1.0  0.128
  H  H33  1  0.679700  0.445400  0.931000  1.0  0.1153
  H  H34  1  0.496800  0.500800  0.601400  1.0  0.1189
  H  H35  1  0.567000  0.611400  0.702900  1.0  0.093
  H  H36  1  0.621500  0.335200  0.657000  1.0  0.1094
  H  H37  1  0.552100  0.219300  0.391200  1.0  0.1109
  H  H38  1  0.421300  0.270500  0.473900  1.0  0.1279
  H  H39  1  0.179700  0.945400  0.931000  1.0  0.1153
  H  H40  1  0.996800  0.000800  0.601400  1.0  0.1189
  H  H41  1  0.067000  0.111400  0.702900  1.0  0.093
  H  H42  1  0.121500  0.835200  0.657000  1.0  0.1094
  H  H43  1  0.052100  0.719300  0.391200  1.0  0.1109
  H  H44  1  0.921300  0.770500  0.473900  1.0  0.1279
  H  H45  1  0.320300  0.445400  0.569000  1.0  0.1155
  H  H46  1  0.503200  0.500800  0.898600  1.0  0.1189
  H  H47  1  0.433000  0.611400  0.797100  1.0  0.0926
  H  H48  1  0.378500  0.335200  0.843000  1.0  0.1101
  H  H49  1  0.447900  0.219300  0.108800  1.0  0.1103
  H  H50  1  0.578700  0.270500  0.026100  1.0  0.1275
  H  H51  1  0.820300  0.945400  0.569000  1.0  0.1155
  H  H52  1  0.003200  0.000800  0.898600  1.0  0.1189
  H  H53  1  0.933000  0.111400  0.797100  1.0  0.0926
  H  H54  1  0.878500  0.835200  0.843000  1.0  0.1101
  H  H55  1  0.947900  0.719300  0.108800  1.0  0.1103
  H  H56  1  0.078700  0.770500  0.026100  1.0  0.1275
  C  C57  1  0.368300  0.461200  0.173700  1.0  -0.1481
  C  C58  1  0.356800  0.543400  0.136600  1.0  -0.0757
  C  C59  1  0.398300  0.609700  0.197900  1.0  0.0163
  C  C60  1  0.452700  0.593800  0.296900  1.0  0.216
  C  C61  1  0.465400  0.510900  0.332100  1.0  -0.1507
  C  C62  1  0.423800  0.445100  0.271800  1.0  -0.0152
  C  C63  1  0.480500  0.691200  0.425200  1.0  0.2783
  C  C64  1  0.414900  0.689700  0.403600  1.0  -0.1075
  C  C65  1  0.402700  0.724700  0.471100  1.0  -0.1385
  C  C66  1  0.456100  0.758900  0.561400  1.0  -0.0595
  C  C67  1  0.521800  0.760900  0.581500  1.0  -0.1152
  C  C68  1  0.534100  0.727500  0.512800  1.0  -0.0979
  C  C69  1  0.320400  0.389700  0.109700  1.0  0.7672
  C  C70  1  0.330200  0.724700  0.443400  1.0  0.7471
  C  C71  1  0.580700  0.796100  0.679600  1.0  0.6803
  C  C72  1  0.868300  0.961200  0.173700  1.0  -0.1481
  C  C73  1  0.856800  0.043400  0.136600  1.0  -0.0757
  C  C74  1  0.898300  0.109700  0.197900  1.0  0.0163
  C  C75  1  0.952700  0.093800  0.296900  1.0  0.216
  C  C76  1  0.965400  0.010900  0.332100  1.0  -0.1507
  C  C77  1  0.923800  0.945100  0.271800  1.0  -0.0152
  C  C78  1  0.980500  0.191200  0.425200  1.0  0.2783
  C  C79  1  0.914900  0.189700  0.403600  1.0  -0.1075
  C  C80  1  0.902700  0.224700  0.471100  1.0  -0.1385
  C  C81  1  0.956100  0.258900  0.561400  1.0  -0.0595
  C  C82  1  0.021800  0.260900  0.581500  1.0  -0.1152
  C  C83  1  0.034100  0.227500  0.512800  1.0  -0.0979
  C  C84  1  0.820400  0.889700  0.109700  1.0  0.7672
  C  C85  1  0.830200  0.224700  0.443400  1.0  0.7471
  C  C86  1  0.080700  0.296100  0.679600  1.0  0.6803
  C  C87  1  0.631700  0.461200  0.326300  1.0  -0.1488
  C  C88  1  0.643200  0.543400  0.363400  1.0  -0.0773
  C  C89  1  0.601700  0.609700  0.302100  1.0  0.0154
  C  C90  1  0.547300  0.593800  0.203100  1.0  0.2171
  C  C91  1  0.534600  0.510900  0.167900  1.0  -0.152
  C  C92  1  0.576200  0.445100  0.228200  1.0  -0.0159
  C  C93  1  0.519500  0.691200  0.074800  1.0  0.278
  C  C94  1  0.585100  0.689700  0.096400  1.0  -0.108
  C  C95  1  0.597300  0.724700  0.028900  1.0  -0.1379
  C  C96  1  0.543900  0.758900  0.938600  1.0  -0.058
  C  C97  1  0.478200  0.760900  0.918500  1.0  -0.1147
  C  C98  1  0.465900  0.727500  0.987200  1.0  -0.1007
  C  C99  1  0.679600  0.389700  0.390300  1.0  0.764
  C  C100  1  0.669800  0.724700  0.056600  1.0  0.7463
  C  C101  1  0.419300  0.796100  0.820400  1.0  0.6781
  C  C102  1  0.131700  0.961200  0.326300  1.0  -0.1488
  C  C103  1  0.143200  0.043400  0.363400  1.0  -0.0773
  C  C104  1  0.101700  0.109700  0.302100  1.0  0.0154
  C  C105  1  0.047300  0.093800  0.203100  1.0  0.2171
  C  C106  1  0.034600  0.010900  0.167900  1.0  -0.152
  C  C107  1  0.076200  0.945100  0.228200  1.0  -0.0159
  C  C108  1  0.019500  0.191200  0.074800  1.0  0.278
  C  C109  1  0.085100  0.189700  0.096400  1.0  -0.108
  C  C110  1  0.097300  0.224700  0.028900  1.0  -0.1379
  C  C111  1  0.043900  0.258900  0.938600  1.0  -0.058
  C  C112  1  0.978200  0.260900  0.918500  1.0  -0.1147
  C  C113  1  0.965900  0.227500  0.987200  1.0  -0.1007
  C  C114  1  0.179600  0.889700  0.390300  1.0  0.764
  C  C115  1  0.169800  0.224700  0.056600  1.0  0.7463
  C  C116  1  0.919300  0.296100  0.820400  1.0  0.6781
  C  C117  1  0.631700  0.538800  0.826300  1.0  -0.1498
  C  C118  1  0.643200  0.456600  0.863400  1.0  -0.0768
  C  C119  1  0.601700  0.390300  0.802100  1.0  0.0158
  C  C120  1  0.547300  0.406200  0.703100  1.0  0.2172
  C  C121  1  0.534600  0.489100  0.667900  1.0  -0.1523
  C  C122  1  0.576200  0.554900  0.728200  1.0  -0.0154
  C  C123  1  0.519500  0.308800  0.574800  1.0  0.2777
  C  C124  1  0.585100  0.310300  0.596400  1.0  -0.1084
  C  C125  1  0.597300  0.275300  0.528900  1.0  -0.1383
  C  C126  1  0.543900  0.241100  0.438600  1.0  -0.0583
  C  C127  1  0.478200  0.239100  0.418500  1.0  -0.1139
  C  C128  1  0.465900  0.272500  0.487200  1.0  -0.1002
  C  C129  1  0.679600  0.610300  0.890300  1.0  0.7645
  C  C130  1  0.669800  0.275300  0.556600  1.0  0.7458
  C  C131  1  0.419300  0.203900  0.320400  1.0  0.6774
  C  C132  1  0.131700  0.038800  0.826300  1.0  -0.1498
  C  C133  1  0.143200  0.956600  0.863400  1.0  -0.0768
  C  C134  1  0.101700  0.890300  0.802100  1.0  0.0158
  C  C135  1  0.047300  0.906200  0.703100  1.0  0.2172
  C  C136  1  0.034600  0.989100  0.667900  1.0  -0.1523
  C  C137  1  0.076200  0.054900  0.728200  1.0  -0.0154
  C  C138  1  0.019500  0.808800  0.574800  1.0  0.2777
  C  C139  1  0.085100  0.810300  0.596400  1.0  -0.1084
  C  C140  1  0.097300  0.775300  0.528900  1.0  -0.1383
  C  C141  1  0.043900  0.741100  0.438600  1.0  -0.0583
  C  C142  1  0.978200  0.739100  0.418500  1.0  -0.1139
  C  C143  1  0.965900  0.772500  0.487200  1.0  -0.1002
  C  C144  1  0.179600  0.110300  0.890300  1.0  0.7645
  C  C145  1  0.169800  0.775300  0.556600  1.0  0.7458
  C  C146  1  0.919300  0.703900  0.320400  1.0  0.6774
  C  C147  1  0.368300  0.538800  0.673700  1.0  -0.1479
  C  C148  1  0.356800  0.456600  0.636600  1.0  -0.0754
  C  C149  1  0.398300  0.390300  0.697900  1.0  0.0164
  C  C150  1  0.452700  0.406200  0.796900  1.0  0.2163
  C  C151  1  0.465400  0.489100  0.832100  1.0  -0.1509
  C  C152  1  0.423800  0.554900  0.771800  1.0  -0.0146
  C  C153  1  0.480500  0.308800  0.925200  1.0  0.2781
  C  C154  1  0.414900  0.310300  0.903600  1.0  -0.1076
  C  C155  1  0.402700  0.275300  0.971100  1.0  -0.1396
  C  C156  1  0.456100  0.241100  0.061400  1.0  -0.0588
  C  C157  1  0.521800  0.239100  0.081500  1.0  -0.114
  C  C158  1  0.534100  0.272500  0.012800  1.0  -0.0976
  C  C159  1  0.320400  0.610300  0.609700  1.0  0.7681
  C  C160  1  0.330200  0.275300  0.943400  1.0  0.7474
  C  C161  1  0.580700  0.203900  0.179600  1.0  0.6806
  C  C162  1  0.868300  0.038800  0.673700  1.0  -0.1479
  C  C163  1  0.856800  0.956600  0.636600  1.0  -0.0754
  C  C164  1  0.898300  0.890300  0.697900  1.0  0.0164
  C  C165  1  0.952700  0.906200  0.796900  1.0  0.2163
  C  C166  1  0.965400  0.989100  0.832100  1.0  -0.1509
  C  C167  1  0.923800  0.054900  0.771800  1.0  -0.0146
  C  C168  1  0.980500  0.808800  0.925200  1.0  0.2781
  C  C169  1  0.914900  0.810300  0.903600  1.0  -0.1076
  C  C170  1  0.902700  0.775300  0.971100  1.0  -0.1396
  C  C171  1  0.956100  0.741100  0.061400  1.0  -0.0588
  C  C172  1  0.021800  0.739100  0.081500  1.0  -0.114
  C  C173  1  0.034100  0.772500  0.012800  1.0  -0.0976
  C  C174  1  0.820400  0.110300  0.609700  1.0  0.7681
  C  C175  1  0.830200  0.775300  0.943400  1.0  0.7474
  C  C176  1  0.080700  0.703900  0.179600  1.0  0.6806
  N  N177  1  0.382600  0.694700  0.154500  1.0  0.6124
  N  N178  1  0.882600  0.194700  0.154500  1.0  0.6124
  N  N179  1  0.617400  0.694700  0.345500  1.0  0.6092
  N  N180  1  0.117400  0.194700  0.345500  1.0  0.6092
  N  N181  1  0.617400  0.305300  0.845500  1.0  0.6104
  N  N182  1  0.117400  0.805300  0.845500  1.0  0.6104
  N  N183  1  0.382600  0.305300  0.654500  1.0  0.6106
  N  N184  1  0.882600  0.805300  0.654500  1.0  0.6106
  O  O185  1  0.327930  0.321100  0.154500  1.0  -0.7139
  O  O186  1  0.277440  0.405300  0.018300  1.0  -0.7783
  O  O187  1  0.347500  0.701300  0.063200  1.0  -0.3975
  O  O188  1  0.404700  0.756200  0.211000  1.0  -0.3923
  O  O189  1  0.285680  0.685600  0.365900  1.0  -0.6432
  O  O190  1  0.316300  0.763800  0.498200  1.0  -0.8213
  O  O191  1  0.569670  0.820200  0.744500  1.0  -0.6095
  O  O192  1  0.638960  0.799200  0.695600  1.0  -0.7006
  O  O193  1  0.496570  0.657400  0.360900  1.0  -0.252
  O  O194  1  0.827930  0.821100  0.154500  1.0  -0.7139
  O  O195  1  0.777440  0.905300  0.018300  1.0  -0.7783
  O  O196  1  0.847500  0.201300  0.063200  1.0  -0.3975
  O  O197  1  0.904700  0.256200  0.211000  1.0  -0.3923
  O  O198  1  0.785680  0.185600  0.365900  1.0  -0.6428
  O  O199  1  0.816300  0.263800  0.498200  1.0  -0.8213
  O  O200  1  0.069670  0.320200  0.744500  1.0  -0.6095
  O  O201  1  0.138960  0.299200  0.695600  1.0  -0.7006
  O  O202  1  0.996570  0.157400  0.360900  1.0  -0.252
  O  O203  1  0.672070  0.321100  0.345500  1.0  -0.7143
  O  O204  1  0.722560  0.405300  0.481700  1.0  -0.7786
  O  O205  1  0.652500  0.701300  0.436800  1.0  -0.3984
  O  O206  1  0.595300  0.756200  0.289000  1.0  -0.3896
  O  O207  1  0.714320  0.685600  0.134100  1.0  -0.6426
  O  O208  1  0.683700  0.763800  0.001800  1.0  -0.821
  O  O209  1  0.430330  0.820200  0.755500  1.0  -0.6103
  O  O210  1  0.361040  0.799200  0.804400  1.0  -0.698
  O  O211  1  0.503430  0.657400  0.139100  1.0  -0.2515
  O  O212  1  0.172070  0.821100  0.345500  1.0  -0.7143
  O  O213  1  0.222560  0.905300  0.481700  1.0  -0.7786
  O  O214  1  0.152500  0.201300  0.436800  1.0  -0.3984
  O  O215  1  0.095300  0.256200  0.289000  1.0  -0.3896
  O  O216  1  0.214320  0.185600  0.134100  1.0  -0.6421
  O  O217  1  0.183700  0.263800  0.001800  1.0  -0.821
  O  O218  1  0.930330  0.320200  0.755500  1.0  -0.6103
  O  O219  1  0.861040  0.299200  0.804400  1.0  -0.698
  O  O220  1  0.003430  0.157400  0.139100  1.0  -0.2515
  O  O221  1  0.672070  0.678900  0.845500  1.0  -0.7141
  O  O222  1  0.722560  0.594700  0.981700  1.0  -0.7773
  O  O223  1  0.652500  0.298700  0.936800  1.0  -0.3988
  O  O224  1  0.595300  0.243800  0.789000  1.0  -0.39
  O  O225  1  0.714320  0.314400  0.634100  1.0  -0.6427
  O  O226  1  0.683700  0.236200  0.501800  1.0  -0.8215
  O  O227  1  0.430330  0.179800  0.255500  1.0  -0.6127
  O  O228  1  0.361040  0.200800  0.304400  1.0  -0.6966
  O  O229  1  0.503430  0.342600  0.639100  1.0  -0.2528
  O  O230  1  0.172070  0.178900  0.845500  1.0  -0.7141
  O  O231  1  0.222560  0.094700  0.981700  1.0  -0.7773
  O  O232  1  0.152500  0.798700  0.936800  1.0  -0.3988
  O  O233  1  0.095300  0.743800  0.789000  1.0  -0.39
  O  O234  1  0.214320  0.814400  0.634100  1.0  -0.6426
  O  O235  1  0.183700  0.736200  0.501800  1.0  -0.8215
  O  O236  1  0.930330  0.679800  0.255500  1.0  -0.6127
  O  O237  1  0.861040  0.700800  0.304400  1.0  -0.6966
  O  O238  1  0.003430  0.842600  0.639100  1.0  -0.2528
  O  O239  1  0.327930  0.678900  0.654500  1.0  -0.7149
  O  O240  1  0.277440  0.594700  0.518300  1.0  -0.7777
  O  O241  1  0.347500  0.298700  0.563200  1.0  -0.3959
  O  O242  1  0.404700  0.243800  0.711000  1.0  -0.3902
  O  O243  1  0.285680  0.314400  0.865900  1.0  -0.6435
  O  O244  1  0.316300  0.236200  0.998200  1.0  -0.8226
  O  O245  1  0.569670  0.179800  0.244500  1.0  -0.6131
  O  O246  1  0.638960  0.200800  0.195600  1.0  -0.6988
  O  O247  1  0.496570  0.342600  0.860900  1.0  -0.2529
  O  O248  1  0.827930  0.178900  0.654500  1.0  -0.7149
  O  O249  1  0.777440  0.094700  0.518300  1.0  -0.7777
  O  O250  1  0.847500  0.798700  0.563200  1.0  -0.3959
  O  O251  1  0.904700  0.743800  0.711000  1.0  -0.3902
  O  O252  1  0.785680  0.814400  0.865900  1.0  -0.6431
  O  O253  1  0.816300  0.736200  0.998200  1.0  -0.8226
  O  O254  1  0.069670  0.679800  0.244500  1.0  -0.6131
  O  O255  1  0.138960  0.700800  0.195600  1.0  -0.6988
  O  O256  1  0.996570  0.842600  0.860900  1.0  -0.2529
