# generated using pymatgen
data_TmH6C15NO9
_symmetry_space_group_name_H-M   'P 1'
_cell_length_a   23.56000000
_cell_length_b   15.66000000
_cell_length_c   15.99100000
_cell_angle_alpha   90.00000000
_cell_angle_beta   123.95700000
_cell_angle_gamma   90.00000000
_symmetry_Int_Tables_number   1
_chemical_formula_structural   TmH6C15NO9
_chemical_formula_sum   'Tm8 H48 C120 N8 O72'
_cell_volume   4893.69105420
_cell_formula_units_Z   8
loop_
 _symmetry_equiv_pos_site_id
 _symmetry_equiv_pos_as_xyz
  1  'x, y, z'
loop_
 _atom_site_type_symbol
 _atom_site_label
 _atom_site_symmetry_multiplicity
 _atom_site_fract_x
 _atom_site_fract_y
 _atom_site_fract_z
 _atom_site_occupancy
 _atom_site_charge
  Tm  Tm1  1  0.810770  0.828090  0.625800  1.0  2.0875
  Tm  Tm2  1  0.310770  0.328090  0.625800  1.0  2.0875
  Tm  Tm3  1  0.189230  0.828090  0.874200  1.0  2.0876
  Tm  Tm4  1  0.689230  0.328090  0.874200  1.0  2.0876
  Tm  Tm5  1  0.189230  0.171910  0.374200  1.0  2.0888
  Tm  Tm6  1  0.689230  0.671910  0.374200  1.0  2.0888
  Tm  Tm7  1  0.810770  0.171910  0.125800  1.0  2.0896
  Tm  Tm8  1  0.310770  0.671910  0.125800  1.0  2.0896
  H  H9  1  0.182500  0.552700  0.432600  1.0  0.1182
  H  H10  1  0.999200  0.495600  0.103700  1.0  0.1232
  H  H11  1  0.071000  0.385400  0.204000  1.0  0.0968
  H  H12  1  0.122200  0.664800  0.156000  1.0  0.1096
  H  H13  1  0.048200  0.781800  0.887600  1.0  0.1104
  H  H14  1  0.921100  0.724900  0.975900  1.0  0.1324
  H  H15  1  0.682500  0.052700  0.432600  1.0  0.1182
  H  H16  1  0.499200  0.995600  0.103700  1.0  0.1232
  H  H17  1  0.571000  0.885400  0.204000  1.0  0.0968
  H  H18  1  0.622200  0.164800  0.156000  1.0  0.1096
  H  H19  1  0.548200  0.281800  0.887600  1.0  0.1104
  H  H20  1  0.421100  0.224900  0.975900  1.0  0.1324
  H  H21  1  0.817500  0.552700  0.067400  1.0  0.1178
  H  H22  1  0.000800  0.495600  0.396300  1.0  0.1241
  H  H23  1  0.929000  0.385400  0.296000  1.0  0.0971
  H  H24  1  0.877800  0.664800  0.344000  1.0  0.1103
  H  H25  1  0.951800  0.781800  0.612400  1.0  0.1106
  H  H26  1  0.078900  0.724900  0.524100  1.0  0.132
  H  H27  1  0.317500  0.052700  0.067400  1.0  0.1178
  H  H28  1  0.500800  0.995600  0.396300  1.0  0.1241
  H  H29  1  0.429000  0.885400  0.296000  1.0  0.0971
  H  H30  1  0.377800  0.164800  0.344000  1.0  0.1103
  H  H31  1  0.451800  0.281800  0.612400  1.0  0.1106
  H  H32  1  0.578900  0.224900  0.524100  1.0  0.132
  H  H33  1  0.817500  0.447300  0.567400  1.0  0.1175
  H  H34  1  0.000800  0.504400  0.896300  1.0  0.1239
  H  H35  1  0.929000  0.614600  0.796000  1.0  0.0973
  H  H36  1  0.877800  0.335200  0.844000  1.0  0.11
  H  H37  1  0.951800  0.218200  0.112400  1.0  0.1109
  H  H38  1  0.078900  0.275100  0.024100  1.0  0.132
  H  H39  1  0.317500  0.947300  0.567400  1.0  0.1175
  H  H40  1  0.500800  0.004400  0.896300  1.0  0.1239
  H  H41  1  0.429000  0.114600  0.796000  1.0  0.0973
  H  H42  1  0.377800  0.835200  0.844000  1.0  0.11
  H  H43  1  0.451800  0.718200  0.112400  1.0  0.1109
  H  H44  1  0.578900  0.775100  0.024100  1.0  0.132
  H  H45  1  0.182500  0.447300  0.932600  1.0  0.1178
  H  H46  1  0.999200  0.504400  0.603700  1.0  0.1234
  H  H47  1  0.071000  0.614600  0.704000  1.0  0.0975
  H  H48  1  0.122200  0.335200  0.656000  1.0  0.1092
  H  H49  1  0.048200  0.218200  0.387600  1.0  0.1108
  H  H50  1  0.921100  0.275100  0.475900  1.0  0.1324
  H  H51  1  0.682500  0.947300  0.932600  1.0  0.1178
  H  H52  1  0.499200  0.004400  0.603700  1.0  0.1234
  H  H53  1  0.571000  0.114600  0.704000  1.0  0.0975
  H  H54  1  0.622200  0.835200  0.656000  1.0  0.1092
  H  H55  1  0.548200  0.718200  0.387600  1.0  0.1108
  H  H56  1  0.421100  0.775100  0.475900  1.0  0.1324
  C  C57  1  0.134800  0.458600  0.328900  1.0  -0.1388
  C  C58  1  0.145900  0.540900  0.365100  1.0  -0.0806
  C  C59  1  0.103800  0.606400  0.303500  1.0  -0.0274
  C  C60  1  0.049900  0.590900  0.205000  1.0  0.2327
  C  C61  1  0.037400  0.507600  0.169900  1.0  -0.1446
  C  C62  1  0.079400  0.442000  0.229700  1.0  -0.0124
  C  C63  1  0.020000  0.689400  0.075500  1.0  0.2792
  C  C64  1  0.085300  0.689700  0.095600  1.0  -0.0627
  C  C65  1  0.096500  0.726500  0.027200  1.0  -0.1419
  C  C66  1  0.041300  0.759600  0.936600  1.0  -0.0477
  C  C67  1  0.976700  0.759800  0.918600  1.0  -0.0706
  C  C68  1  0.965500  0.724600  0.988400  1.0  -0.1291
  C  C69  1  0.182000  0.386700  0.392200  1.0  0.7607
  C  C70  1  0.167500  0.729700  0.051400  1.0  0.7517
  C  C71  1  0.917400  0.794600  0.820200  1.0  0.6804
  C  C72  1  0.634800  0.958600  0.328900  1.0  -0.1388
  C  C73  1  0.645900  0.040900  0.365100  1.0  -0.0806
  C  C74  1  0.603800  0.106400  0.303500  1.0  -0.0274
  C  C75  1  0.549900  0.090900  0.205000  1.0  0.2327
  C  C76  1  0.537400  0.007600  0.169900  1.0  -0.1446
  C  C77  1  0.579400  0.942000  0.229700  1.0  -0.0124
  C  C78  1  0.520000  0.189400  0.075500  1.0  0.2792
  C  C79  1  0.585300  0.189700  0.095600  1.0  -0.0627
  C  C80  1  0.596500  0.226500  0.027200  1.0  -0.1419
  C  C81  1  0.541300  0.259600  0.936600  1.0  -0.0477
  C  C82  1  0.476700  0.259800  0.918600  1.0  -0.0706
  C  C83  1  0.465500  0.224600  0.988400  1.0  -0.1291
  C  C84  1  0.682000  0.886700  0.392200  1.0  0.7607
  C  C85  1  0.667500  0.229700  0.051400  1.0  0.7517
  C  C86  1  0.417400  0.294600  0.820200  1.0  0.6804
  C  C87  1  0.865200  0.458600  0.171100  1.0  -0.1384
  C  C88  1  0.854100  0.540900  0.134900  1.0  -0.079
  C  C89  1  0.896200  0.606400  0.196500  1.0  -0.0277
  C  C90  1  0.950100  0.590900  0.295000  1.0  0.231
  C  C91  1  0.962600  0.507600  0.330100  1.0  -0.1437
  C  C92  1  0.920600  0.442000  0.270300  1.0  -0.0116
  C  C93  1  0.980000  0.689400  0.424500  1.0  0.2792
  C  C94  1  0.914700  0.689700  0.404400  1.0  -0.0637
  C  C95  1  0.903500  0.726500  0.472800  1.0  -0.1431
  C  C96  1  0.958700  0.759600  0.563400  1.0  -0.0492
  C  C97  1  0.023300  0.759800  0.581400  1.0  -0.0705
  C  C98  1  0.034500  0.724600  0.511600  1.0  -0.1279
  C  C99  1  0.818000  0.386700  0.107800  1.0  0.7624
  C  C100  1  0.832500  0.729700  0.448600  1.0  0.7508
  C  C101  1  0.082600  0.794600  0.679800  1.0  0.6818
  C  C102  1  0.365200  0.958600  0.171100  1.0  -0.1384
  C  C103  1  0.354100  0.040900  0.134900  1.0  -0.079
  C  C104  1  0.396200  0.106400  0.196500  1.0  -0.0277
  C  C105  1  0.450100  0.090900  0.295000  1.0  0.231
  C  C106  1  0.462600  0.007600  0.330100  1.0  -0.1437
  C  C107  1  0.420600  0.942000  0.270300  1.0  -0.0116
  C  C108  1  0.480000  0.189400  0.424500  1.0  0.2792
  C  C109  1  0.414700  0.189700  0.404400  1.0  -0.0637
  C  C110  1  0.403500  0.226500  0.472800  1.0  -0.1431
  C  C111  1  0.458700  0.259600  0.563400  1.0  -0.0492
  C  C112  1  0.523300  0.259800  0.581400  1.0  -0.0705
  C  C113  1  0.534500  0.224600  0.511600  1.0  -0.1279
  C  C114  1  0.318000  0.886700  0.107800  1.0  0.7624
  C  C115  1  0.332500  0.229700  0.448600  1.0  0.7508
  C  C116  1  0.582600  0.294600  0.679800  1.0  0.6818
  C  C117  1  0.865200  0.541400  0.671100  1.0  -0.138
  C  C118  1  0.854100  0.459100  0.634900  1.0  -0.0791
  C  C119  1  0.896200  0.393600  0.696500  1.0  -0.0278
  C  C120  1  0.950100  0.409100  0.795000  1.0  0.2316
  C  C121  1  0.962600  0.492400  0.830100  1.0  -0.1441
  C  C122  1  0.920600  0.558000  0.770300  1.0  -0.0108
  C  C123  1  0.980000  0.310600  0.924500  1.0  0.2789
  C  C124  1  0.914700  0.310300  0.904400  1.0  -0.0639
  C  C125  1  0.903500  0.273500  0.972800  1.0  -0.1439
  C  C126  1  0.958700  0.240400  0.063400  1.0  -0.0485
  C  C127  1  0.023300  0.240200  0.081400  1.0  -0.0697
  C  C128  1  0.034500  0.275400  0.011600  1.0  -0.1278
  C  C129  1  0.818000  0.613300  0.607800  1.0  0.7633
  C  C130  1  0.832500  0.270300  0.948600  1.0  0.7314
  C  C131  1  0.082600  0.205400  0.179800  1.0  0.6814
  C  C132  1  0.365200  0.041400  0.671100  1.0  -0.138
  C  C133  1  0.354100  0.959100  0.634900  1.0  -0.0791
  C  C134  1  0.396200  0.893600  0.696500  1.0  -0.0278
  C  C135  1  0.450100  0.909100  0.795000  1.0  0.2316
  C  C136  1  0.462600  0.992400  0.830100  1.0  -0.1441
  C  C137  1  0.420600  0.058000  0.770300  1.0  -0.0108
  C  C138  1  0.480000  0.810600  0.924500  1.0  0.2789
  C  C139  1  0.414700  0.810300  0.904400  1.0  -0.0639
  C  C140  1  0.403500  0.773500  0.972800  1.0  -0.1439
  C  C141  1  0.458700  0.740400  0.063400  1.0  -0.0485
  C  C142  1  0.523300  0.740200  0.081400  1.0  -0.0697
  C  C143  1  0.534500  0.775400  0.011600  1.0  -0.1278
  C  C144  1  0.318000  0.113300  0.607800  1.0  0.7633
  C  C145  1  0.332500  0.770300  0.948600  1.0  0.7314
  C  C146  1  0.582600  0.705400  0.179800  1.0  0.6814
  C  C147  1  0.134800  0.541400  0.828900  1.0  -0.1388
  C  C148  1  0.145900  0.459100  0.865100  1.0  -0.0801
  C  C149  1  0.103800  0.393600  0.803500  1.0  -0.0272
  C  C150  1  0.049900  0.409100  0.705000  1.0  0.2327
  C  C151  1  0.037400  0.492400  0.669900  1.0  -0.1453
  C  C152  1  0.079400  0.558000  0.729700  1.0  -0.012
  C  C153  1  0.020000  0.310600  0.575500  1.0  0.279
  C  C154  1  0.085300  0.310300  0.595600  1.0  -0.0629
  C  C155  1  0.096500  0.273500  0.527200  1.0  -0.1422
  C  C156  1  0.041300  0.240400  0.436600  1.0  -0.048
  C  C157  1  0.976700  0.240200  0.418600  1.0  -0.0695
  C  C158  1  0.965500  0.275400  0.488400  1.0  -0.128
  C  C159  1  0.182000  0.613300  0.892200  1.0  0.7607
  C  C160  1  0.167500  0.270300  0.551400  1.0  0.731
  C  C161  1  0.917400  0.205400  0.320200  1.0  0.6796
  C  C162  1  0.634800  0.041400  0.828900  1.0  -0.1388
  C  C163  1  0.645900  0.959100  0.865100  1.0  -0.0801
  C  C164  1  0.603800  0.893600  0.803500  1.0  -0.0272
  C  C165  1  0.549900  0.909100  0.705000  1.0  0.2327
  C  C166  1  0.537400  0.992400  0.669900  1.0  -0.1453
  C  C167  1  0.579400  0.058000  0.729700  1.0  -0.012
  C  C168  1  0.520000  0.810600  0.575500  1.0  0.279
  C  C169  1  0.585300  0.810300  0.595600  1.0  -0.0629
  C  C170  1  0.596500  0.773500  0.527200  1.0  -0.1422
  C  C171  1  0.541300  0.740400  0.436600  1.0  -0.048
  C  C172  1  0.476700  0.740200  0.418600  1.0  -0.0695
  C  C173  1  0.465500  0.775400  0.488400  1.0  -0.128
  C  C174  1  0.682000  0.113300  0.892200  1.0  0.7607
  C  C175  1  0.667500  0.770300  0.551400  1.0  0.731
  C  C176  1  0.417400  0.705400  0.320200  1.0  0.6796
  N  N177  1  0.119000  0.692000  0.346900  1.0  0.6109
  N  N178  1  0.619000  0.192000  0.346900  1.0  0.6109
  N  N179  1  0.881000  0.692000  0.153100  1.0  0.6137
  N  N180  1  0.381000  0.192000  0.153100  1.0  0.6137
  N  N181  1  0.881000  0.308000  0.653100  1.0  0.6107
  N  N182  1  0.381000  0.808000  0.653100  1.0  0.6107
  N  N183  1  0.119000  0.308000  0.846900  1.0  0.6105
  N  N184  1  0.619000  0.808000  0.846900  1.0  0.6105
  O  O185  1  0.175800  0.318400  0.347200  1.0  -0.6947
  O  O186  1  0.224100  0.401400  0.485100  1.0  -0.7386
  O  O187  1  0.153600  0.698700  0.439400  1.0  -0.419
  O  O188  1  0.097000  0.753500  0.290700  1.0  -0.3731
  O  O189  1  0.214800  0.692400  0.129500  1.0  -0.6257
  O  O190  1  0.177600  0.769700  0.992300  1.0  -0.822
  O  O191  1  0.927500  0.818800  0.754100  1.0  -0.6045
  O  O192  1  0.859400  0.797000  0.805300  1.0  -0.6958
  O  O193  1  0.005200  0.653800  0.141100  1.0  -0.2547
  O  O194  1  0.675800  0.818400  0.347200  1.0  -0.6947
  O  O195  1  0.724100  0.901400  0.485100  1.0  -0.7386
  O  O196  1  0.653600  0.198700  0.439400  1.0  -0.419
  O  O197  1  0.597000  0.253500  0.290700  1.0  -0.3731
  O  O198  1  0.714800  0.192400  0.129500  1.0  -0.6253
  O  O199  1  0.677600  0.269700  0.992300  1.0  -0.822
  O  O200  1  0.427500  0.318800  0.754100  1.0  -0.6045
  O  O201  1  0.359400  0.297000  0.805300  1.0  -0.6958
  O  O202  1  0.505200  0.153800  0.141100  1.0  -0.2547
  O  O203  1  0.824200  0.318400  0.152800  1.0  -0.6935
  O  O204  1  0.775900  0.401400  0.014900  1.0  -0.7387
  O  O205  1  0.846400  0.698700  0.060600  1.0  -0.4177
  O  O206  1  0.903000  0.753500  0.209300  1.0  -0.376
  O  O207  1  0.785200  0.692400  0.370500  1.0  -0.6248
  O  O208  1  0.822400  0.769700  0.507700  1.0  -0.8224
  O  O209  1  0.072500  0.818800  0.745900  1.0  -0.6043
  O  O210  1  0.140600  0.797000  0.694700  1.0  -0.7008
  O  O211  1  0.994800  0.653800  0.358900  1.0  -0.2551
  O  O212  1  0.324200  0.818400  0.152800  1.0  -0.6935
  O  O213  1  0.275900  0.901400  0.014900  1.0  -0.7387
  O  O214  1  0.346400  0.198700  0.060600  1.0  -0.4177
  O  O215  1  0.403000  0.253500  0.209300  1.0  -0.376
  O  O216  1  0.285200  0.192400  0.370500  1.0  -0.6244
  O  O217  1  0.322400  0.269700  0.507700  1.0  -0.8224
  O  O218  1  0.572500  0.318800  0.745900  1.0  -0.6043
  O  O219  1  0.640600  0.297000  0.694700  1.0  -0.7008
  O  O220  1  0.494800  0.153800  0.358900  1.0  -0.2551
  O  O221  1  0.824200  0.681600  0.652800  1.0  -0.694
  O  O222  1  0.775900  0.598600  0.514900  1.0  -0.7387
  O  O223  1  0.846400  0.301300  0.560600  1.0  -0.4164
  O  O224  1  0.903000  0.246500  0.709300  1.0  -0.3752
  O  O225  1  0.785200  0.307600  0.870500  1.0  -0.6255
  O  O226  1  0.822400  0.230300  0.007700  1.0  -0.822
  O  O227  1  0.072500  0.181200  0.245900  1.0  -0.6074
  O  O228  1  0.140600  0.203000  0.194700  1.0  -0.6992
  O  O229  1  0.994800  0.346200  0.858900  1.0  -0.2556
  O  O230  1  0.324200  0.181600  0.652800  1.0  -0.694
  O  O231  1  0.275900  0.098600  0.514900  1.0  -0.7387
  O  O232  1  0.346400  0.801300  0.560600  1.0  -0.4164
  O  O233  1  0.403000  0.746500  0.709300  1.0  -0.3752
  O  O234  1  0.285200  0.807600  0.870500  1.0  -0.6248
  O  O235  1  0.322400  0.730300  0.007700  1.0  -0.822
  O  O236  1  0.572500  0.681200  0.245900  1.0  -0.6074
  O  O237  1  0.640600  0.703000  0.194700  1.0  -0.6992
  O  O238  1  0.494800  0.846200  0.858900  1.0  -0.2556
  O  O239  1  0.175800  0.681600  0.847200  1.0  -0.6945
  O  O240  1  0.224100  0.598600  0.985100  1.0  -0.7382
  O  O241  1  0.153600  0.301300  0.939400  1.0  -0.4205
  O  O242  1  0.097000  0.246500  0.790700  1.0  -0.3746
  O  O243  1  0.214800  0.307600  0.629500  1.0  -0.6261
  O  O244  1  0.177600  0.230300  0.492300  1.0  -0.8205
  O  O245  1  0.927500  0.181200  0.254100  1.0  -0.6065
  O  O246  1  0.859400  0.203000  0.305300  1.0  -0.6954
  O  O247  1  0.005200  0.346200  0.641100  1.0  -0.255
  O  O248  1  0.675800  0.181600  0.847200  1.0  -0.6945
  O  O249  1  0.724100  0.098600  0.985100  1.0  -0.7382
  O  O250  1  0.653600  0.801300  0.939400  1.0  -0.4205
  O  O251  1  0.597000  0.746500  0.790700  1.0  -0.3746
  O  O252  1  0.714800  0.807600  0.629500  1.0  -0.6256
  O  O253  1  0.677600  0.730300  0.492300  1.0  -0.8205
  O  O254  1  0.427500  0.681200  0.254100  1.0  -0.6065
  O  O255  1  0.359400  0.703000  0.305300  1.0  -0.6954
  O  O256  1  0.505200  0.846200  0.641100  1.0  -0.255
