# generated using pymatgen
data_ErH6C15NO9
_symmetry_space_group_name_H-M   'P 1'
_cell_length_a   23.48300000
_cell_length_b   15.62300000
_cell_length_c   15.96400000
_cell_angle_alpha   90.00000000
_cell_angle_beta   124.00800000
_cell_angle_gamma   90.00000000
_symmetry_Int_Tables_number   1
_chemical_formula_structural   ErH6C15NO9
_chemical_formula_sum   'Er8 H48 C120 N8 O72'
_cell_volume   4855.04249859
_cell_formula_units_Z   8
loop_
 _symmetry_equiv_pos_site_id
 _symmetry_equiv_pos_as_xyz
  1  'x, y, z'
loop_
 _atom_site_type_symbol
 _atom_site_label
 _atom_site_symmetry_multiplicity
 _atom_site_fract_x
 _atom_site_fract_y
 _atom_site_fract_z
 _atom_site_occupancy
 _atom_site_charge
  Er  Er1  1  0.810790  0.328040  0.625010  1.0  1.5475
  Er  Er2  1  0.310790  0.828040  0.625010  1.0  1.5475
  Er  Er3  1  0.189210  0.328040  0.874990  1.0  1.5475
  Er  Er4  1  0.689210  0.828040  0.874990  1.0  1.5475
  Er  Er5  1  0.189210  0.671960  0.374990  1.0  1.5459
  Er  Er6  1  0.689210  0.171960  0.374990  1.0  1.5459
  Er  Er7  1  0.810790  0.671960  0.125010  1.0  1.5467
  Er  Er8  1  0.310790  0.171960  0.125010  1.0  1.5467
  H  H9  1  0.181200  0.053600  0.431800  1.0  0.129
  H  H10  1  0.998400  0.996200  0.103300  1.0  0.1302
  H  H11  1  0.069700  0.885200  0.204000  1.0  0.1177
  H  H12  1  0.121500  0.164600  0.156500  1.0  0.1308
  H  H13  1  0.049900  0.280800  0.888800  1.0  0.1298
  H  H14  1  0.920600  0.226400  0.974200  1.0  0.1485
  H  H15  1  0.681200  0.553600  0.431800  1.0  0.129
  H  H16  1  0.498400  0.496200  0.103300  1.0  0.1302
  H  H17  1  0.569700  0.385200  0.204000  1.0  0.1177
  H  H18  1  0.621500  0.664600  0.156500  1.0  0.1308
  H  H19  1  0.549900  0.780800  0.888800  1.0  0.1298
  H  H20  1  0.420600  0.726400  0.974200  1.0  0.1485
  H  H21  1  0.818800  0.053600  0.068200  1.0  0.1296
  H  H22  1  0.001600  0.996200  0.396700  1.0  0.1311
  H  H23  1  0.930300  0.885200  0.296000  1.0  0.1174
  H  H24  1  0.878500  0.164600  0.343500  1.0  0.1316
  H  H25  1  0.950100  0.280800  0.611200  1.0  0.13
  H  H26  1  0.079400  0.226400  0.525800  1.0  0.1479
  H  H27  1  0.318800  0.553600  0.068200  1.0  0.1296
  H  H28  1  0.501600  0.496200  0.396700  1.0  0.1311
  H  H29  1  0.430300  0.385200  0.296000  1.0  0.1174
  H  H30  1  0.378500  0.664600  0.343500  1.0  0.1316
  H  H31  1  0.450100  0.780800  0.611200  1.0  0.13
  H  H32  1  0.579400  0.726400  0.525800  1.0  0.1479
  H  H33  1  0.818800  0.946400  0.568200  1.0  0.1292
  H  H34  1  0.001600  0.003800  0.896700  1.0  0.1308
  H  H35  1  0.930300  0.114800  0.796000  1.0  0.1178
  H  H36  1  0.878500  0.835400  0.843500  1.0  0.1312
  H  H37  1  0.950100  0.719200  0.111200  1.0  0.1302
  H  H38  1  0.079400  0.773600  0.025800  1.0  0.1478
  H  H39  1  0.318800  0.446400  0.568200  1.0  0.1292
  H  H40  1  0.501600  0.503800  0.896700  1.0  0.1308
  H  H41  1  0.430300  0.614800  0.796000  1.0  0.1178
  H  H42  1  0.378500  0.335400  0.843500  1.0  0.1312
  H  H43  1  0.450100  0.219200  0.111200  1.0  0.1302
  H  H44  1  0.579400  0.273600  0.025800  1.0  0.1478
  H  H45  1  0.181200  0.946400  0.931800  1.0  0.1287
  H  H46  1  0.998400  0.003800  0.603300  1.0  0.1302
  H  H47  1  0.069700  0.114800  0.704000  1.0  0.1183
  H  H48  1  0.121500  0.835400  0.656500  1.0  0.1304
  H  H49  1  0.049900  0.719200  0.388800  1.0  0.1299
  H  H50  1  0.920600  0.773600  0.474200  1.0  0.1484
  H  H51  1  0.681200  0.446400  0.931800  1.0  0.1287
  H  H52  1  0.498400  0.503800  0.603300  1.0  0.1302
  H  H53  1  0.569700  0.614800  0.704000  1.0  0.1183
  H  H54  1  0.621500  0.335400  0.656500  1.0  0.1304
  H  H55  1  0.549900  0.219200  0.388800  1.0  0.1299
  H  H56  1  0.420600  0.273600  0.474200  1.0  0.1484
  C  C57  1  0.134100  0.958600  0.328300  1.0  -0.1567
  C  C58  1  0.144600  0.041900  0.364000  1.0  -0.0773
  C  C59  1  0.103300  0.107900  0.303800  1.0  0.0176
  C  C60  1  0.048800  0.091600  0.204100  1.0  0.2511
  C  C61  1  0.036600  0.008200  0.169800  1.0  -0.1114
  C  C62  1  0.078600  0.941900  0.229700  1.0  -0.0212
  C  C63  1  0.019400  0.189600  0.074600  1.0  0.3113
  C  C64  1  0.084700  0.189400  0.095600  1.0  -0.0769
  C  C65  1  0.096600  0.225800  0.026900  1.0  -0.1157
  C  C66  1  0.042600  0.258900  0.937500  1.0  -0.0353
  C  C67  1  0.977300  0.260100  0.918600  1.0  -0.0505
  C  C68  1  0.965300  0.225500  0.987200  1.0  -0.1061
  C  C69  1  0.181700  0.887300  0.392000  1.0  0.7839
  C  C70  1  0.168200  0.228500  0.052600  1.0  0.7782
  C  C71  1  0.918400  0.295700  0.820800  1.0  0.6748
  C  C72  1  0.634100  0.458600  0.328300  1.0  -0.1567
  C  C73  1  0.644600  0.541900  0.364000  1.0  -0.0773
  C  C74  1  0.603300  0.607900  0.303800  1.0  0.0176
  C  C75  1  0.548800  0.591600  0.204100  1.0  0.2511
  C  C76  1  0.536600  0.508200  0.169800  1.0  -0.1114
  C  C77  1  0.578600  0.441900  0.229700  1.0  -0.0212
  C  C78  1  0.519400  0.689600  0.074600  1.0  0.3113
  C  C79  1  0.584700  0.689400  0.095600  1.0  -0.0769
  C  C80  1  0.596600  0.725800  0.026900  1.0  -0.1157
  C  C81  1  0.542600  0.758900  0.937500  1.0  -0.0353
  C  C82  1  0.477300  0.760100  0.918600  1.0  -0.0505
  C  C83  1  0.465300  0.725500  0.987200  1.0  -0.1061
  C  C84  1  0.681700  0.387300  0.392000  1.0  0.7839
  C  C85  1  0.668200  0.728500  0.052600  1.0  0.7782
  C  C86  1  0.418400  0.795700  0.820800  1.0  0.6748
  C  C87  1  0.865900  0.958600  0.171700  1.0  -0.1564
  C  C88  1  0.855400  0.041900  0.136000  1.0  -0.0747
  C  C89  1  0.896700  0.107900  0.196200  1.0  0.016
  C  C90  1  0.951200  0.091600  0.295900  1.0  0.25
  C  C91  1  0.963400  0.008200  0.330200  1.0  -0.1118
  C  C92  1  0.921400  0.941900  0.270300  1.0  -0.0207
  C  C93  1  0.980600  0.189600  0.425400  1.0  0.3112
  C  C94  1  0.915300  0.189400  0.404400  1.0  -0.0771
  C  C95  1  0.903400  0.225800  0.473100  1.0  -0.1174
  C  C96  1  0.957400  0.258900  0.562500  1.0  -0.0367
  C  C97  1  0.022700  0.260100  0.581400  1.0  -0.0501
  C  C98  1  0.034700  0.225500  0.512800  1.0  -0.1053
  C  C99  1  0.818300  0.887300  0.108000  1.0  0.7868
  C  C100  1  0.831800  0.228500  0.447400  1.0  0.7773
  C  C101  1  0.081600  0.295700  0.679200  1.0  0.6756
  C  C102  1  0.365900  0.458600  0.171700  1.0  -0.1564
  C  C103  1  0.355400  0.541900  0.136000  1.0  -0.0747
  C  C104  1  0.396700  0.607900  0.196200  1.0  0.016
  C  C105  1  0.451200  0.591600  0.295900  1.0  0.25
  C  C106  1  0.463400  0.508200  0.330200  1.0  -0.1118
  C  C107  1  0.421400  0.441900  0.270300  1.0  -0.0207
  C  C108  1  0.480600  0.689600  0.425400  1.0  0.3112
  C  C109  1  0.415300  0.689400  0.404400  1.0  -0.0771
  C  C110  1  0.403400  0.725800  0.473100  1.0  -0.1174
  C  C111  1  0.457400  0.758900  0.562500  1.0  -0.0367
  C  C112  1  0.522700  0.760100  0.581400  1.0  -0.0501
  C  C113  1  0.534700  0.725500  0.512800  1.0  -0.1053
  C  C114  1  0.318300  0.387300  0.108000  1.0  0.7868
  C  C115  1  0.331800  0.728500  0.447400  1.0  0.7773
  C  C116  1  0.581600  0.795700  0.679200  1.0  0.6756
  C  C117  1  0.865900  0.041400  0.671700  1.0  -0.1563
  C  C118  1  0.855400  0.958100  0.636000  1.0  -0.0744
  C  C119  1  0.896700  0.892100  0.696200  1.0  0.0159
  C  C120  1  0.951200  0.908400  0.795900  1.0  0.2499
  C  C121  1  0.963400  0.991800  0.830200  1.0  -0.1117
  C  C122  1  0.921400  0.058100  0.770300  1.0  -0.0201
  C  C123  1  0.980600  0.810400  0.925400  1.0  0.3111
  C  C124  1  0.915300  0.810600  0.904400  1.0  -0.0769
  C  C125  1  0.903400  0.774200  0.973100  1.0  -0.118
  C  C126  1  0.957400  0.741100  0.062500  1.0  -0.0352
  C  C127  1  0.022700  0.739900  0.081400  1.0  -0.0501
  C  C128  1  0.034700  0.774500  0.012800  1.0  -0.1049
  C  C129  1  0.818300  0.112700  0.608000  1.0  0.7878
  C  C130  1  0.831800  0.771500  0.947400  1.0  0.7571
  C  C131  1  0.081600  0.704300  0.179200  1.0  0.6754
  C  C132  1  0.365900  0.541400  0.671700  1.0  -0.1563
  C  C133  1  0.355400  0.458100  0.636000  1.0  -0.0744
  C  C134  1  0.396700  0.392100  0.696200  1.0  0.0159
  C  C135  1  0.451200  0.408400  0.795900  1.0  0.2499
  C  C136  1  0.463400  0.491800  0.830200  1.0  -0.1117
  C  C137  1  0.421400  0.558100  0.770300  1.0  -0.0201
  C  C138  1  0.480600  0.310400  0.925400  1.0  0.3111
  C  C139  1  0.415300  0.310600  0.904400  1.0  -0.0769
  C  C140  1  0.403400  0.274200  0.973100  1.0  -0.118
  C  C141  1  0.457400  0.241100  0.062500  1.0  -0.0352
  C  C142  1  0.522700  0.239900  0.081400  1.0  -0.0501
  C  C143  1  0.534700  0.274500  0.012800  1.0  -0.1049
  C  C144  1  0.318300  0.612700  0.608000  1.0  0.7878
  C  C145  1  0.331800  0.271500  0.947400  1.0  0.7571
  C  C146  1  0.581600  0.204300  0.179200  1.0  0.6754
  C  C147  1  0.134100  0.041400  0.828300  1.0  -0.1569
  C  C148  1  0.144600  0.958100  0.864000  1.0  -0.0768
  C  C149  1  0.103300  0.892100  0.803800  1.0  0.0176
  C  C150  1  0.048800  0.908400  0.704100  1.0  0.251
  C  C151  1  0.036600  0.991800  0.669800  1.0  -0.1119
  C  C152  1  0.078600  0.058100  0.729700  1.0  -0.0206
  C  C153  1  0.019400  0.810400  0.574600  1.0  0.3112
  C  C154  1  0.084700  0.810600  0.595600  1.0  -0.0772
  C  C155  1  0.096600  0.774200  0.526900  1.0  -0.1161
  C  C156  1  0.042600  0.741100  0.437500  1.0  -0.0351
  C  C157  1  0.977300  0.739900  0.418600  1.0  -0.0504
  C  C158  1  0.965300  0.774500  0.487200  1.0  -0.105
  C  C159  1  0.181700  0.112700  0.892000  1.0  0.7841
  C  C160  1  0.168200  0.771500  0.552600  1.0  0.7572
  C  C161  1  0.918400  0.704300  0.320800  1.0  0.6744
  C  C162  1  0.634100  0.541400  0.828300  1.0  -0.1569
  C  C163  1  0.644600  0.458100  0.864000  1.0  -0.0768
  C  C164  1  0.603300  0.392100  0.803800  1.0  0.0176
  C  C165  1  0.548800  0.408400  0.704100  1.0  0.251
  C  C166  1  0.536600  0.491800  0.669800  1.0  -0.1119
  C  C167  1  0.578600  0.558100  0.729700  1.0  -0.0206
  C  C168  1  0.519400  0.310400  0.574600  1.0  0.3112
  C  C169  1  0.584700  0.310600  0.595600  1.0  -0.0772
  C  C170  1  0.596600  0.274200  0.526900  1.0  -0.1161
  C  C171  1  0.542600  0.241100  0.437500  1.0  -0.0351
  C  C172  1  0.477300  0.239900  0.418600  1.0  -0.0504
  C  C173  1  0.465300  0.274500  0.487200  1.0  -0.105
  C  C174  1  0.681700  0.612700  0.892000  1.0  0.7841
  C  C175  1  0.668200  0.271500  0.552600  1.0  0.7572
  C  C176  1  0.418400  0.204300  0.320800  1.0  0.6744
  N  N177  1  0.118100  0.193000  0.345400  1.0  0.6387
  N  N178  1  0.618100  0.693000  0.345400  1.0  0.6387
  N  N179  1  0.881900  0.193000  0.154600  1.0  0.6408
  N  N180  1  0.381900  0.693000  0.154600  1.0  0.6408
  N  N181  1  0.881900  0.807000  0.654600  1.0  0.6375
  N  N182  1  0.381900  0.307000  0.654600  1.0  0.6375
  N  N183  1  0.118100  0.807000  0.845400  1.0  0.6375
  N  N184  1  0.618100  0.307000  0.845400  1.0  0.6375
  O  O185  1  0.174600  0.818800  0.347000  1.0  -0.6686
  O  O186  1  0.223500  0.902500  0.484400  1.0  -0.7452
  O  O187  1  0.153600  0.199100  0.438400  1.0  -0.3907
  O  O188  1  0.095900  0.254300  0.290100  1.0  -0.35
  O  O189  1  0.214800  0.190500  0.130500  1.0  -0.6242
  O  O190  1  0.179900  0.268100  0.995600  1.0  -0.7833
  O  O191  1  0.927800  0.320300  0.753700  1.0  -0.5613
  O  O192  1  0.859300  0.297600  0.804700  1.0  -0.6695
  O  O193  1  0.004300  0.154300  0.139800  1.0  -0.2326
  O  O194  1  0.674600  0.318800  0.347000  1.0  -0.6686
  O  O195  1  0.723500  0.402500  0.484400  1.0  -0.7452
  O  O196  1  0.653600  0.699100  0.438400  1.0  -0.3907
  O  O197  1  0.595900  0.754300  0.290100  1.0  -0.35
  O  O198  1  0.714800  0.690500  0.130500  1.0  -0.6246
  O  O199  1  0.679900  0.768100  0.995600  1.0  -0.7833
  O  O200  1  0.427800  0.820300  0.753700  1.0  -0.5613
  O  O201  1  0.359300  0.797600  0.804700  1.0  -0.6695
  O  O202  1  0.504300  0.654300  0.139800  1.0  -0.2326
  O  O203  1  0.825400  0.818800  0.153000  1.0  -0.668
  O  O204  1  0.776500  0.902500  0.015600  1.0  -0.7451
  O  O205  1  0.846400  0.199100  0.061600  1.0  -0.3881
  O  O206  1  0.904100  0.254300  0.209900  1.0  -0.3523
  O  O207  1  0.785200  0.190500  0.369500  1.0  -0.6245
  O  O208  1  0.820100  0.268100  0.504400  1.0  -0.7835
  O  O209  1  0.072200  0.320300  0.746300  1.0  -0.5608
  O  O210  1  0.140700  0.297600  0.695300  1.0  -0.6751
  O  O211  1  0.995700  0.154300  0.360200  1.0  -0.2334
  O  O212  1  0.325400  0.318800  0.153000  1.0  -0.668
  O  O213  1  0.276500  0.402500  0.015600  1.0  -0.7451
  O  O214  1  0.346400  0.699100  0.061600  1.0  -0.3881
  O  O215  1  0.404100  0.754300  0.209900  1.0  -0.3523
  O  O216  1  0.285200  0.690500  0.369500  1.0  -0.6248
  O  O217  1  0.320100  0.768100  0.504400  1.0  -0.7835
  O  O218  1  0.572200  0.820300  0.746300  1.0  -0.5608
  O  O219  1  0.640700  0.797600  0.695300  1.0  -0.6751
  O  O220  1  0.495700  0.654300  0.360200  1.0  -0.2334
  O  O221  1  0.825400  0.181200  0.653000  1.0  -0.6689
  O  O222  1  0.776500  0.097500  0.515600  1.0  -0.7459
  O  O223  1  0.846400  0.800900  0.561600  1.0  -0.3875
  O  O224  1  0.904100  0.745700  0.709900  1.0  -0.3516
  O  O225  1  0.785200  0.809500  0.869500  1.0  -0.6252
  O  O226  1  0.820100  0.731900  0.004400  1.0  -0.7822
  O  O227  1  0.072200  0.679700  0.246300  1.0  -0.5621
  O  O228  1  0.140700  0.702400  0.195300  1.0  -0.6736
  O  O229  1  0.995700  0.845700  0.860200  1.0  -0.2338
  O  O230  1  0.325400  0.681200  0.653000  1.0  -0.6689
  O  O231  1  0.276500  0.597500  0.515600  1.0  -0.7459
  O  O232  1  0.346400  0.300900  0.561600  1.0  -0.3875
  O  O233  1  0.404100  0.245700  0.709900  1.0  -0.3516
  O  O234  1  0.285200  0.309500  0.869500  1.0  -0.6266
  O  O235  1  0.320100  0.231900  0.004400  1.0  -0.7822
  O  O236  1  0.572200  0.179700  0.246300  1.0  -0.5621
  O  O237  1  0.640700  0.202400  0.195300  1.0  -0.6736
  O  O238  1  0.495700  0.345700  0.860200  1.0  -0.2338
  O  O239  1  0.174600  0.181200  0.847000  1.0  -0.669
  O  O240  1  0.223500  0.097500  0.984400  1.0  -0.7445
  O  O241  1  0.153600  0.800900  0.938400  1.0  -0.3917
  O  O242  1  0.095900  0.745700  0.790100  1.0  -0.3507
  O  O243  1  0.214800  0.809500  0.630500  1.0  -0.6255
  O  O244  1  0.179900  0.731900  0.495600  1.0  -0.7811
  O  O245  1  0.927800  0.679700  0.253700  1.0  -0.5622
  O  O246  1  0.859300  0.702400  0.304700  1.0  -0.6696
  O  O247  1  0.004300  0.845700  0.639800  1.0  -0.2334
  O  O248  1  0.674600  0.681200  0.847000  1.0  -0.669
  O  O249  1  0.723500  0.597500  0.984400  1.0  -0.7445
  O  O250  1  0.653600  0.300900  0.938400  1.0  -0.3917
  O  O251  1  0.595900  0.245700  0.790100  1.0  -0.3507
  O  O252  1  0.714800  0.309500  0.630500  1.0  -0.6267
  O  O253  1  0.679900  0.231900  0.495600  1.0  -0.7811
  O  O254  1  0.427800  0.179700  0.253700  1.0  -0.5622
  O  O255  1  0.359300  0.202400  0.304700  1.0  -0.6696
  O  O256  1  0.504300  0.345700  0.639800  1.0  -0.2334
