# generated using pymatgen
data_HoH6C15NO9
_symmetry_space_group_name_H-M   'P 1'
_cell_length_a   23.56340000
_cell_length_b   15.69400000
_cell_length_c   16.04030000
_cell_angle_alpha   90.00000000
_cell_angle_beta   124.08300000
_cell_angle_gamma   90.00000000
_symmetry_Int_Tables_number   1
_chemical_formula_structural   HoH6C15NO9
_chemical_formula_sum   'Ho8 H48 C120 N8 O72'
_cell_volume   4912.84754862
_cell_formula_units_Z   8
loop_
 _symmetry_equiv_pos_site_id
 _symmetry_equiv_pos_as_xyz
  1  'x, y, z'
loop_
 _atom_site_type_symbol
 _atom_site_label
 _atom_site_symmetry_multiplicity
 _atom_site_fract_x
 _atom_site_fract_y
 _atom_site_fract_z
 _atom_site_occupancy
 _atom_site_charge
  Ho  Ho1  1  0.810810  0.327680  0.624350  1.0  2.1192
  Ho  Ho2  1  0.310810  0.827680  0.624350  1.0  2.1192
  Ho  Ho3  1  0.189190  0.327680  0.875650  1.0  2.1196
  Ho  Ho4  1  0.689190  0.827680  0.875650  1.0  2.1196
  Ho  Ho5  1  0.189190  0.672320  0.375650  1.0  2.1181
  Ho  Ho6  1  0.689190  0.172320  0.375650  1.0  2.1181
  Ho  Ho7  1  0.810810  0.672320  0.124350  1.0  2.1187
  Ho  Ho8  1  0.310810  0.172320  0.124350  1.0  2.1187
  H  H9  1  0.181000  0.053400  0.432300  1.0  0.118
  H  H10  1  0.997300  0.998200  0.102700  1.0  0.12
  H  H11  1  0.068900  0.887200  0.203800  1.0  0.0955
  H  H12  1  0.122300  0.164900  0.156900  1.0  0.1134
  H  H13  1  0.050600  0.280900  0.889600  1.0  0.1104
  H  H14  1  0.921400  0.228500  0.975700  1.0  0.1335
  H  H15  1  0.681000  0.553400  0.432300  1.0  0.118
  H  H16  1  0.497300  0.498200  0.102700  1.0  0.12
  H  H17  1  0.568900  0.387200  0.203800  1.0  0.0955
  H  H18  1  0.622300  0.664900  0.156900  1.0  0.1134
  H  H19  1  0.550600  0.780900  0.889600  1.0  0.1104
  H  H20  1  0.421400  0.728500  0.975700  1.0  0.1335
  H  H21  1  0.819000  0.053400  0.067700  1.0  0.1177
  H  H22  1  0.002700  0.998200  0.397300  1.0  0.1202
  H  H23  1  0.931100  0.887200  0.296200  1.0  0.0959
  H  H24  1  0.877700  0.164900  0.343100  1.0  0.1113
  H  H25  1  0.949400  0.280900  0.610400  1.0  0.1103
  H  H26  1  0.078600  0.228500  0.524300  1.0  0.1331
  H  H27  1  0.319000  0.553400  0.067700  1.0  0.1177
  H  H28  1  0.502700  0.498200  0.397300  1.0  0.1202
  H  H29  1  0.431100  0.387200  0.296200  1.0  0.0954
  H  H30  1  0.377700  0.664900  0.343100  1.0  0.1113
  H  H31  1  0.449400  0.780900  0.610400  1.0  0.1103
  H  H32  1  0.578600  0.728500  0.524300  1.0  0.1331
  H  H33  1  0.819000  0.946600  0.567700  1.0  0.1175
  H  H34  1  0.002700  0.001800  0.897300  1.0  0.1202
  H  H35  1  0.931100  0.112800  0.796200  1.0  0.0958
  H  H36  1  0.877700  0.835100  0.843100  1.0  0.1131
  H  H37  1  0.949400  0.719100  0.110400  1.0  0.1107
  H  H38  1  0.078600  0.771500  0.024300  1.0  0.1331
  H  H39  1  0.319000  0.446600  0.567700  1.0  0.1175
  H  H40  1  0.502700  0.501800  0.897300  1.0  0.1202
  H  H41  1  0.431100  0.612800  0.796200  1.0  0.0958
  H  H42  1  0.377700  0.335100  0.843100  1.0  0.1131
  H  H43  1  0.449400  0.219100  0.110400  1.0  0.1107
  H  H44  1  0.578600  0.271500  0.024300  1.0  0.1331
  H  H45  1  0.181000  0.946600  0.932300  1.0  0.1176
  H  H46  1  0.997300  0.001800  0.602700  1.0  0.1199
  H  H47  1  0.068900  0.112800  0.703800  1.0  0.0964
  H  H48  1  0.122300  0.835100  0.656900  1.0  0.1147
  H  H49  1  0.050600  0.719100  0.389600  1.0  0.1104
  H  H50  1  0.921400  0.771500  0.475700  1.0  0.1334
  H  H51  1  0.681000  0.446600  0.932300  1.0  0.1176
  H  H52  1  0.497300  0.501800  0.602700  1.0  0.1199
  H  H53  1  0.568900  0.612800  0.703800  1.0  0.0964
  H  H54  1  0.622300  0.335100  0.656900  1.0  0.1147
  H  H55  1  0.550600  0.219100  0.389600  1.0  0.1106
  H  H56  1  0.421400  0.271500  0.475700  1.0  0.1334
  C  C57  1  0.133000  0.960300  0.327300  1.0  -0.1411
  C  C58  1  0.144500  0.042300  0.364600  1.0  -0.0769
  C  C59  1  0.102800  0.108500  0.303500  1.0  0.0244
  C  C60  1  0.048500  0.093000  0.204300  1.0  0.206
  C  C61  1  0.035500  0.010000  0.169000  1.0  -0.1569
  C  C62  1  0.077700  0.943800  0.229300  1.0  -0.0176
  C  C63  1  0.020000  0.190300  0.075000  1.0  0.2399
  C  C64  1  0.085600  0.189600  0.096200  1.0  -0.0651
  C  C65  1  0.097200  0.225300  0.028500  1.0  -0.1375
  C  C66  1  0.043000  0.259100  0.937800  1.0  -0.051
  C  C67  1  0.977500  0.260800  0.918600  1.0  -0.0427
  C  C68  1  0.965800  0.226700  0.988000  1.0  -0.0999
  C  C69  1  0.180800  0.888100  0.391800  1.0  0.7427
  C  C70  1  0.169000  0.226800  0.054200  1.0  0.7377
  C  C71  1  0.918300  0.295800  0.820200  1.0  0.6851
  C  C72  1  0.633000  0.460300  0.327300  1.0  -0.1411
  C  C73  1  0.644500  0.542300  0.364600  1.0  -0.0769
  C  C74  1  0.602800  0.608500  0.303500  1.0  0.0244
  C  C75  1  0.548500  0.593000  0.204300  1.0  0.206
  C  C76  1  0.535500  0.510000  0.169000  1.0  -0.1569
  C  C77  1  0.577700  0.443800  0.229300  1.0  -0.0176
  C  C78  1  0.520000  0.690300  0.075000  1.0  0.2399
  C  C79  1  0.585600  0.689600  0.096200  1.0  -0.0651
  C  C80  1  0.597200  0.725300  0.028500  1.0  -0.1375
  C  C81  1  0.543000  0.759100  0.937800  1.0  -0.051
  C  C82  1  0.477500  0.760800  0.918600  1.0  -0.0427
  C  C83  1  0.465800  0.726700  0.988000  1.0  -0.0999
  C  C84  1  0.680800  0.388100  0.391800  1.0  0.7427
  C  C85  1  0.669000  0.726800  0.054200  1.0  0.7377
  C  C86  1  0.418300  0.795800  0.820200  1.0  0.681
  C  C87  1  0.867000  0.960300  0.172700  1.0  -0.1396
  C  C88  1  0.855500  0.042300  0.135400  1.0  -0.0761
  C  C89  1  0.897200  0.108500  0.196500  1.0  0.0262
  C  C90  1  0.951500  0.093000  0.295700  1.0  0.2046
  C  C91  1  0.964500  0.010000  0.331000  1.0  -0.1529
  C  C92  1  0.922300  0.943800  0.270700  1.0  -0.0176
  C  C93  1  0.980000  0.190300  0.425000  1.0  0.2412
  C  C94  1  0.914400  0.189600  0.403800  1.0  -0.066
  C  C95  1  0.902800  0.225300  0.471500  1.0  -0.1387
  C  C96  1  0.957000  0.259100  0.562200  1.0  -0.0527
  C  C97  1  0.022500  0.260800  0.581400  1.0  -0.0432
  C  C98  1  0.034200  0.226700  0.512000  1.0  -0.0979
  C  C99  1  0.819200  0.888100  0.108200  1.0  0.7607
  C  C100  1  0.831000  0.226800  0.445800  1.0  0.7292
  C  C101  1  0.081700  0.295800  0.679800  1.0  0.682
  C  C102  1  0.367000  0.460300  0.172700  1.0  -0.1396
  C  C103  1  0.355500  0.542300  0.135400  1.0  -0.0761
  C  C104  1  0.397200  0.608500  0.196500  1.0  0.0262
  C  C105  1  0.451500  0.593000  0.295700  1.0  0.2046
  C  C106  1  0.464500  0.510000  0.331000  1.0  -0.1529
  C  C107  1  0.422300  0.443800  0.270700  1.0  -0.0176
  C  C108  1  0.480000  0.690300  0.425000  1.0  0.2412
  C  C109  1  0.414400  0.689600  0.403800  1.0  -0.066
  C  C110  1  0.402800  0.725300  0.471500  1.0  -0.1387
  C  C111  1  0.457000  0.759100  0.562200  1.0  -0.0527
  C  C112  1  0.522500  0.760800  0.581400  1.0  -0.0432
  C  C113  1  0.534200  0.726700  0.512000  1.0  -0.0979
  C  C114  1  0.319200  0.388100  0.108200  1.0  0.7607
  C  C115  1  0.331000  0.726800  0.445800  1.0  0.7292
  C  C116  1  0.581700  0.795800  0.679800  1.0  0.6863
  C  C117  1  0.867000  0.039700  0.672700  1.0  -0.139
  C  C118  1  0.855500  0.957700  0.635400  1.0  -0.0759
  C  C119  1  0.897200  0.891500  0.696500  1.0  0.0287
  C  C120  1  0.951500  0.907000  0.795700  1.0  0.2048
  C  C121  1  0.964500  0.990000  0.831000  1.0  -0.1532
  C  C122  1  0.922300  0.056200  0.770700  1.0  -0.0168
  C  C123  1  0.980000  0.809700  0.925000  1.0  0.2509
  C  C124  1  0.914400  0.810400  0.903800  1.0  -0.0662
  C  C125  1  0.902800  0.774700  0.971500  1.0  -0.1395
  C  C126  1  0.957000  0.740900  0.062200  1.0  -0.0512
  C  C127  1  0.022500  0.739200  0.081400  1.0  -0.042
  C  C128  1  0.034200  0.773300  0.012000  1.0  -0.0981
  C  C129  1  0.819200  0.111900  0.608200  1.0  0.7487
  C  C130  1  0.831000  0.773200  0.945800  1.0  0.7237
  C  C131  1  0.081700  0.704200  0.179800  1.0  0.6842
  C  C132  1  0.367000  0.539700  0.672700  1.0  -0.139
  C  C133  1  0.355500  0.457700  0.635400  1.0  -0.0759
  C  C134  1  0.397200  0.391500  0.696500  1.0  0.0287
  C  C135  1  0.451500  0.407000  0.795700  1.0  0.2048
  C  C136  1  0.464500  0.490000  0.831000  1.0  -0.1532
  C  C137  1  0.422300  0.556200  0.770700  1.0  -0.0168
  C  C138  1  0.480000  0.309700  0.925000  1.0  0.2509
  C  C139  1  0.414400  0.310400  0.903800  1.0  -0.0662
  C  C140  1  0.402800  0.274700  0.971500  1.0  -0.1395
  C  C141  1  0.457000  0.240900  0.062200  1.0  -0.0512
  C  C142  1  0.522500  0.239200  0.081400  1.0  -0.042
  C  C143  1  0.534200  0.273300  0.012000  1.0  -0.0981
  C  C144  1  0.319200  0.611900  0.608200  1.0  0.7487
  C  C145  1  0.331000  0.273200  0.945800  1.0  0.7237
  C  C146  1  0.581700  0.204200  0.179800  1.0  0.6878
  C  C147  1  0.133000  0.039700  0.827300  1.0  -0.1413
  C  C148  1  0.144500  0.957700  0.864600  1.0  -0.0764
  C  C149  1  0.102800  0.891500  0.803500  1.0  0.0251
  C  C150  1  0.048500  0.907000  0.704300  1.0  0.2059
  C  C151  1  0.035500  0.990000  0.669000  1.0  -0.1542
  C  C152  1  0.077700  0.056200  0.729300  1.0  -0.0172
  C  C153  1  0.020000  0.809700  0.575000  1.0  0.2408
  C  C154  1  0.085600  0.810400  0.596200  1.0  -0.0653
  C  C155  1  0.097200  0.774700  0.528500  1.0  -0.1375
  C  C156  1  0.043000  0.740900  0.437800  1.0  -0.053
  C  C157  1  0.977500  0.739200  0.418600  1.0  -0.0417
  C  C158  1  0.965800  0.773300  0.488000  1.0  -0.0996
  C  C159  1  0.180800  0.111900  0.891800  1.0  0.7439
  C  C160  1  0.169000  0.773200  0.554200  1.0  0.7292
  C  C161  1  0.918300  0.704200  0.320200  1.0  0.6857
  C  C162  1  0.633000  0.539700  0.827300  1.0  -0.1413
  C  C163  1  0.644500  0.457700  0.864600  1.0  -0.0764
  C  C164  1  0.602800  0.391500  0.803500  1.0  0.0251
  C  C165  1  0.548500  0.407000  0.704300  1.0  0.2059
  C  C166  1  0.535500  0.490000  0.669000  1.0  -0.1542
  C  C167  1  0.577700  0.556200  0.729300  1.0  -0.0172
  C  C168  1  0.520000  0.309700  0.575000  1.0  0.2408
  C  C169  1  0.585600  0.310400  0.596200  1.0  -0.0653
  C  C170  1  0.597200  0.274700  0.528500  1.0  -0.1375
  C  C171  1  0.543000  0.240900  0.437800  1.0  -0.0526
  C  C172  1  0.477500  0.239200  0.418600  1.0  -0.0417
  C  C173  1  0.465800  0.273300  0.488000  1.0  -0.0996
  C  C174  1  0.680800  0.611900  0.891800  1.0  0.7439
  C  C175  1  0.669000  0.273200  0.554200  1.0  0.7292
  C  C176  1  0.418300  0.204200  0.320200  1.0  0.684
  N  N177  1  0.118400  0.193600  0.346600  1.0  0.6149
  N  N178  1  0.618400  0.693600  0.346600  1.0  0.6149
  N  N179  1  0.881600  0.193600  0.153400  1.0  0.6179
  N  N180  1  0.381600  0.693600  0.153400  1.0  0.6179
  N  N181  1  0.881600  0.806400  0.653400  1.0  0.6157
  N  N182  1  0.381600  0.306400  0.653400  1.0  0.6157
  N  N183  1  0.118400  0.806400  0.846600  1.0  0.6151
  N  N184  1  0.618400  0.306400  0.846600  1.0  0.6151
  O  O185  1  0.173600  0.819700  0.346300  1.0  -0.7073
  O  O186  1  0.223160  0.903100  0.483600  1.0  -0.7625
  O  O187  1  0.153400  0.200100  0.439100  1.0  -0.405
  O  O188  1  0.096300  0.255100  0.290400  1.0  -0.3761
  O  O189  1  0.214940  0.188900  0.132400  1.0  -0.6512
  O  O190  1  0.181530  0.266500  0.998200  1.0  -0.825
  O  O191  1  0.929200  0.320100  0.755000  1.0  -0.6051
  O  O192  1  0.860150  0.298300  0.804400  1.0  -0.6923
  O  O193  1  0.004400  0.155700  0.140400  1.0  -0.2518
  O  O194  1  0.673600  0.319700  0.346300  1.0  -0.7073
  O  O195  1  0.723160  0.403100  0.483600  1.0  -0.7625
  O  O196  1  0.653400  0.700100  0.439100  1.0  -0.405
  O  O197  1  0.596300  0.755100  0.290400  1.0  -0.3761
  O  O198  1  0.714940  0.688900  0.132400  1.0  -0.6512
  O  O199  1  0.681530  0.766500  0.998200  1.0  -0.825
  O  O200  1  0.429200  0.820100  0.755000  1.0  -0.6056
  O  O201  1  0.360150  0.798300  0.804400  1.0  -0.6923
  O  O202  1  0.504400  0.655700  0.140400  1.0  -0.2518
  O  O203  1  0.826400  0.819700  0.153700  1.0  -0.7074
  O  O204  1  0.776840  0.903100  0.016400  1.0  -0.763
  O  O205  1  0.846600  0.200100  0.060900  1.0  -0.4029
  O  O206  1  0.903700  0.255100  0.209600  1.0  -0.3784
  O  O207  1  0.785060  0.188900  0.367600  1.0  -0.6512
  O  O208  1  0.818470  0.266500  0.501800  1.0  -0.8258
  O  O209  1  0.070800  0.320100  0.745000  1.0  -0.6046
  O  O210  1  0.139850  0.298300  0.695600  1.0  -0.6967
  O  O211  1  0.995600  0.155700  0.359600  1.0  -0.2534
  O  O212  1  0.326400  0.319700  0.153700  1.0  -0.7074
  O  O213  1  0.276840  0.403100  0.016400  1.0  -0.763
  O  O214  1  0.346600  0.700100  0.060900  1.0  -0.4029
  O  O215  1  0.403700  0.755100  0.209600  1.0  -0.3784
  O  O216  1  0.285060  0.688900  0.367600  1.0  -0.6512
  O  O217  1  0.318470  0.766500  0.501800  1.0  -0.8258
  O  O218  1  0.570800  0.820100  0.745000  1.0  -0.6046
  O  O219  1  0.639850  0.798300  0.695600  1.0  -0.6967
  O  O220  1  0.495600  0.655700  0.359600  1.0  -0.2534
  O  O221  1  0.826400  0.180300  0.653700  1.0  -0.7077
  O  O222  1  0.776840  0.096900  0.516400  1.0  -0.7622
  O  O223  1  0.846600  0.799900  0.560900  1.0  -0.4019
  O  O224  1  0.903700  0.744900  0.709600  1.0  -0.3763
  O  O225  1  0.785060  0.811100  0.867600  1.0  -0.6502
  O  O226  1  0.818470  0.733500  0.001800  1.0  -0.826
  O  O227  1  0.070800  0.679900  0.245000  1.0  -0.6058
  O  O228  1  0.139850  0.701700  0.195600  1.0  -0.6954
  O  O229  1  0.995600  0.844300  0.859600  1.0  -0.2539
  O  O230  1  0.326400  0.680300  0.653700  1.0  -0.7077
  O  O231  1  0.276840  0.596900  0.516400  1.0  -0.7622
  O  O232  1  0.346600  0.299900  0.560900  1.0  -0.4019
  O  O233  1  0.403700  0.244900  0.709600  1.0  -0.3763
  O  O234  1  0.285060  0.311100  0.867600  1.0  -0.6502
  O  O235  1  0.318470  0.233500  0.001800  1.0  -0.826
  O  O236  1  0.570800  0.179900  0.245000  1.0  -0.6058
  O  O237  1  0.639850  0.201700  0.195600  1.0  -0.6954
  O  O238  1  0.495600  0.344300  0.859600  1.0  -0.2539
  O  O239  1  0.173600  0.180300  0.846300  1.0  -0.7071
  O  O240  1  0.223160  0.096900  0.983600  1.0  -0.7616
  O  O241  1  0.153400  0.799900  0.939100  1.0  -0.4061
  O  O242  1  0.096300  0.744900  0.790400  1.0  -0.3764
  O  O243  1  0.214940  0.811100  0.632400  1.0  -0.6504
  O  O244  1  0.181530  0.733500  0.498200  1.0  -0.824
  O  O245  1  0.929200  0.679900  0.255000  1.0  -0.606
  O  O246  1  0.860150  0.701700  0.304400  1.0  -0.6884
  O  O247  1  0.004400  0.844300  0.640400  1.0  -0.2524
  O  O248  1  0.673600  0.680300  0.846300  1.0  -0.7071
  O  O249  1  0.723160  0.596900  0.983600  1.0  -0.7616
  O  O250  1  0.653400  0.299900  0.939100  1.0  -0.4061
  O  O251  1  0.596300  0.244900  0.790400  1.0  -0.3764
  O  O252  1  0.714940  0.311100  0.632400  1.0  -0.6504
  O  O253  1  0.681530  0.233500  0.498200  1.0  -0.824
  O  O254  1  0.429200  0.179900  0.255000  1.0  -0.6059
  O  O255  1  0.360150  0.201700  0.304400  1.0  -0.6884
  O  O256  1  0.504400  0.344300  0.640400  1.0  -0.2524
