# generated using pymatgen
data_CaC2N2ClO3
_symmetry_space_group_name_H-M   'P 1'
_cell_length_a   7.58240000
_cell_length_b   17.77130000
_cell_length_c   6.41770000
_cell_angle_alpha   90.00000000
_cell_angle_beta   91.15850000
_cell_angle_gamma   90.00000000
_symmetry_Int_Tables_number   1
_chemical_formula_structural   CaC2N2ClO3
_chemical_formula_sum   'Ca4 C8 N8 Cl4 O12'
_cell_volume   864.60256243
_cell_formula_units_Z   4
loop_
 _symmetry_equiv_pos_site_id
 _symmetry_equiv_pos_as_xyz
  1  'x, y, z'
loop_
 _atom_site_type_symbol
 _atom_site_label
 _atom_site_symmetry_multiplicity
 _atom_site_fract_x
 _atom_site_fract_y
 _atom_site_fract_z
 _atom_site_occupancy
 _atom_site_charge
  Ca  Ca1  1  0.500260  0.446240  0.240700  1.0  1.6179
  Ca  Ca2  1  0.999740  0.946240  0.759300  1.0  1.6181
  Ca  Ca3  1  0.499740  0.553760  0.759300  1.0  1.6181
  Ca  Ca4  1  0.000260  0.053760  0.240700  1.0  1.6177
  C  C5  1  0.738250  0.277710  0.306260  1.0  0.5904
  C  C6  1  0.808830  0.226290  0.122000  1.0  0.5905
  C  C7  1  0.761750  0.777710  0.693740  1.0  0.5901
  C  C8  1  0.691170  0.726290  0.878000  1.0  0.5894
  C  C9  1  0.261750  0.722290  0.693740  1.0  0.591
  C  C10  1  0.191170  0.773710  0.878000  1.0  0.5887
  C  C11  1  0.238250  0.222290  0.306260  1.0  0.5918
  C  C12  1  0.308830  0.273710  0.122000  1.0  0.5902
  N  N13  1  0.728290  0.240180  0.484680  1.0  -0.2068
  N  N14  1  0.835930  0.265100  0.952130  1.0  -0.2256
  N  N15  1  0.771710  0.740180  0.515320  1.0  -0.2112
  N  N16  1  0.664070  0.765100  0.047870  1.0  -0.2228
  N  N17  1  0.271710  0.759820  0.515320  1.0  -0.212
  N  N18  1  0.164070  0.734900  0.047870  1.0  -0.2218
  N  N19  1  0.228290  0.259820  0.484680  1.0  -0.2076
  N  N20  1  0.335930  0.234900  0.952130  1.0  -0.2249
  Cl  Cl21  1  0.483800  0.616080  0.263700  1.0  -0.5552
  Cl  Cl22  1  0.016200  0.116080  0.736300  1.0  -0.5556
  Cl  Cl23  1  0.516200  0.383920  0.736300  1.0  -0.5557
  Cl  Cl24  1  0.983800  0.883920  0.263700  1.0  -0.5554
  O  O25  1  0.697100  0.504600  0.031900  1.0  -0.5796
  O  O26  1  0.704160  0.343390  0.272290  1.0  -0.6334
  O  O27  1  0.827660  0.159040  0.154900  1.0  -0.597
  O  O28  1  0.802900  0.004600  0.968100  1.0  -0.5788
  O  O29  1  0.795840  0.843390  0.727710  1.0  -0.6333
  O  O30  1  0.672340  0.659040  0.845100  1.0  -0.5991
  O  O31  1  0.302900  0.495400  0.968100  1.0  -0.5787
  O  O32  1  0.295840  0.656610  0.727710  1.0  -0.6341
  O  O33  1  0.172340  0.840960  0.845100  1.0  -0.596
  O  O34  1  0.197100  0.995400  0.031900  1.0  -0.5796
  O  O35  1  0.204160  0.156610  0.272290  1.0  -0.6343
  O  O36  1  0.327660  0.340960  0.154900  1.0  -0.5953
