# generated using pymatgen
data_CuH10(C7N3)2
_symmetry_space_group_name_H-M   'P 1'
_cell_length_a   14.53700000
_cell_length_b   14.53700000
_cell_length_c   20.19500000
_cell_angle_alpha   90.00000000
_cell_angle_beta   90.00000000
_cell_angle_gamma   90.00000000
_symmetry_Int_Tables_number   1
_chemical_formula_structural   CuH10(C7N3)2
_chemical_formula_sum   'Cu8 H80 C112 N48'
_cell_volume   4267.69563196
_cell_formula_units_Z   8
loop_
 _symmetry_equiv_pos_site_id
 _symmetry_equiv_pos_as_xyz
  1  'x, y, z'
loop_
 _atom_site_type_symbol
 _atom_site_label
 _atom_site_symmetry_multiplicity
 _atom_site_fract_x
 _atom_site_fract_y
 _atom_site_fract_z
 _atom_site_occupancy
 _atom_site_charge
  Cu  Cu1  1  0.500000  0.500000  0.000000  1.0  0.6666
  Cu  Cu2  1  0.000000  0.000000  0.000000  1.0  0.6666
  Cu  Cu3  1  0.000000  0.500000  0.500000  1.0  0.6666
  Cu  Cu4  1  0.500000  0.000000  0.500000  1.0  0.6666
  Cu  Cu5  1  0.250000  0.750000  0.250000  1.0  0.3826
  Cu  Cu6  1  0.750000  0.250000  0.750000  1.0  0.3826
  Cu  Cu7  1  0.750000  0.250000  0.250000  1.0  0.3826
  Cu  Cu8  1  0.250000  0.750000  0.750000  1.0  0.3826
  H  H9  1  0.208600  0.556700  0.209600  1.0  0.0585
  H  H10  1  0.256700  0.444200  0.134900  1.0  0.0563
  H  H11  1  0.566400  0.698000  0.028500  1.0  0.0649
  H  H12  1  0.528900  0.815000  0.103200  1.0  0.0875
  H  H13  1  0.404900  0.797300  0.174300  1.0  0.0946
  H  H14  1  0.291400  0.943300  0.209600  1.0  0.0582
  H  H15  1  0.243300  0.055800  0.134900  1.0  0.056
  H  H16  1  0.933600  0.802000  0.028500  1.0  0.067
  H  H17  1  0.971100  0.685000  0.103200  1.0  0.0857
  H  H18  1  0.095100  0.702700  0.174300  1.0  0.0943
  H  H19  1  0.943300  0.208600  0.709600  1.0  0.0591
  H  H20  1  0.055800  0.256700  0.634900  1.0  0.0559
  H  H21  1  0.802000  0.566400  0.528500  1.0  0.0673
  H  H22  1  0.685000  0.528900  0.603200  1.0  0.086
  H  H23  1  0.702700  0.404900  0.674300  1.0  0.0945
  H  H24  1  0.556700  0.291400  0.709600  1.0  0.0594
  H  H25  1  0.444200  0.243300  0.634900  1.0  0.0534
  H  H26  1  0.698000  0.933600  0.528500  1.0  0.0644
  H  H27  1  0.815000  0.971100  0.603200  1.0  0.086
  H  H28  1  0.797300  0.095100  0.674300  1.0  0.0937
  H  H29  1  0.791400  0.056700  0.290400  1.0  0.0582
  H  H30  1  0.743300  0.944200  0.365100  1.0  0.0548
  H  H31  1  0.433600  0.198000  0.471500  1.0  0.0637
  H  H32  1  0.471100  0.315000  0.396800  1.0  0.0876
  H  H33  1  0.595100  0.297300  0.325700  1.0  0.0943
  H  H34  1  0.708600  0.443300  0.290400  1.0  0.0584
  H  H35  1  0.756700  0.555800  0.365100  1.0  0.056
  H  H36  1  0.066400  0.302000  0.471500  1.0  0.0664
  H  H37  1  0.028900  0.185000  0.396800  1.0  0.0871
  H  H38  1  0.904900  0.202700  0.325700  1.0  0.0945
  H  H39  1  0.056700  0.708600  0.790400  1.0  0.0591
  H  H40  1  0.944200  0.756700  0.865100  1.0  0.054
  H  H41  1  0.198000  0.066400  0.971500  1.0  0.0634
  H  H42  1  0.315000  0.028900  0.896800  1.0  0.0867
  H  H43  1  0.297300  0.904900  0.825700  1.0  0.0945
  H  H44  1  0.443300  0.791400  0.790400  1.0  0.0592
  H  H45  1  0.555800  0.743300  0.865100  1.0  0.0555
  H  H46  1  0.302000  0.433600  0.971500  1.0  0.0674
  H  H47  1  0.185000  0.471100  0.896800  1.0  0.0865
  H  H48  1  0.202700  0.595100  0.825700  1.0  0.095
  H  H49  1  0.791400  0.443300  0.790400  1.0  0.0582
  H  H50  1  0.743300  0.555800  0.865100  1.0  0.056
  H  H51  1  0.433600  0.302000  0.971500  1.0  0.0672
  H  H52  1  0.471100  0.185000  0.896800  1.0  0.0866
  H  H53  1  0.595100  0.202700  0.825700  1.0  0.0938
  H  H54  1  0.708600  0.056700  0.790400  1.0  0.0584
  H  H55  1  0.756700  0.944200  0.865100  1.0  0.0551
  H  H56  1  0.066400  0.198000  0.971500  1.0  0.0642
  H  H57  1  0.028900  0.315000  0.896800  1.0  0.0878
  H  H58  1  0.904900  0.297300  0.825700  1.0  0.0951
  H  H59  1  0.056700  0.791400  0.290400  1.0  0.0596
  H  H60  1  0.944200  0.743300  0.365100  1.0  0.0532
  H  H61  1  0.198000  0.433600  0.471500  1.0  0.0629
  H  H62  1  0.315000  0.471100  0.396800  1.0  0.0866
  H  H63  1  0.297300  0.595100  0.325700  1.0  0.0937
  H  H64  1  0.443300  0.708600  0.290400  1.0  0.0589
  H  H65  1  0.555800  0.756700  0.365100  1.0  0.0549
  H  H66  1  0.302000  0.066400  0.471500  1.0  0.0671
  H  H67  1  0.185000  0.028900  0.396800  1.0  0.0862
  H  H68  1  0.202700  0.904900  0.325700  1.0  0.0953
  H  H69  1  0.208600  0.943300  0.709600  1.0  0.0582
  H  H70  1  0.256700  0.055800  0.634900  1.0  0.0571
  H  H71  1  0.566400  0.802000  0.528500  1.0  0.0667
  H  H72  1  0.528900  0.685000  0.603200  1.0  0.0868
  H  H73  1  0.404900  0.702700  0.674300  1.0  0.0942
  H  H74  1  0.291400  0.556700  0.709600  1.0  0.0584
  H  H75  1  0.243300  0.444200  0.634900  1.0  0.0554
  H  H76  1  0.933600  0.698000  0.528500  1.0  0.0653
  H  H77  1  0.971100  0.815000  0.603200  1.0  0.0867
  H  H78  1  0.095100  0.797300  0.674300  1.0  0.0937
  H  H79  1  0.943300  0.291400  0.209600  1.0  0.0592
  H  H80  1  0.055800  0.243300  0.134900  1.0  0.0552
  H  H81  1  0.802000  0.933600  0.028500  1.0  0.0669
  H  H82  1  0.685000  0.971100  0.103200  1.0  0.0856
  H  H83  1  0.702700  0.095100  0.174300  1.0  0.0947
  H  H84  1  0.556700  0.208600  0.209600  1.0  0.0593
  H  H85  1  0.444200  0.256700  0.134900  1.0  0.0551
  H  H86  1  0.698000  0.566400  0.028500  1.0  0.0644
  H  H87  1  0.815000  0.528900  0.103200  1.0  0.0865
  H  H88  1  0.797300  0.404900  0.174300  1.0  0.094
  C  C89  1  0.259700  0.569700  0.181800  1.0  0.1186
  C  C90  1  0.288700  0.501200  0.136200  1.0  0.0933
  C  C91  1  0.517100  0.688900  0.058700  1.0  0.1214
  C  C92  1  0.494200  0.759700  0.102800  1.0  -0.1356
  C  C93  1  0.422100  0.749000  0.145200  1.0  -0.2177
  C  C94  1  0.373900  0.666000  0.145100  1.0  0.1925
  C  C95  1  0.400500  0.596400  0.100400  1.0  0.3074
  C  C96  1  0.240300  0.930300  0.181800  1.0  0.1185
  C  C97  1  0.211300  0.998800  0.136200  1.0  0.094
  C  C98  1  0.982900  0.811100  0.058700  1.0  0.1256
  C  C99  1  0.005800  0.740300  0.102800  1.0  -0.139
  C  C100  1  0.077900  0.751000  0.145200  1.0  -0.2163
  C  C101  1  0.126100  0.834000  0.145100  1.0  0.1917
  C  C102  1  0.099500  0.903600  0.100400  1.0  0.3079
  C  C103  1  0.930300  0.259700  0.681800  1.0  0.1206
  C  C104  1  0.998800  0.288700  0.636200  1.0  0.0939
  C  C105  1  0.811100  0.517100  0.558700  1.0  0.1281
  C  C106  1  0.740300  0.494200  0.602800  1.0  -0.141
  C  C107  1  0.751000  0.422100  0.645200  1.0  -0.2168
  C  C108  1  0.834000  0.373900  0.645100  1.0  0.1879
  C  C109  1  0.903600  0.400500  0.600400  1.0  0.307
  C  C110  1  0.569700  0.240300  0.681800  1.0  0.1191
  C  C111  1  0.501200  0.211300  0.636200  1.0  0.0933
  C  C112  1  0.688900  0.982900  0.558700  1.0  0.1202
  C  C113  1  0.759700  0.005800  0.602800  1.0  -0.1368
  C  C114  1  0.749000  0.077900  0.645200  1.0  -0.2157
  C  C115  1  0.666000  0.126100  0.645100  1.0  0.1991
  C  C116  1  0.596400  0.099500  0.600400  1.0  0.3078
  C  C117  1  0.740300  0.069700  0.318200  1.0  0.1182
  C  C118  1  0.711300  0.001200  0.363800  1.0  0.0934
  C  C119  1  0.482900  0.188900  0.441300  1.0  0.127
  C  C120  1  0.505800  0.259700  0.397200  1.0  -0.1395
  C  C121  1  0.577900  0.249000  0.354800  1.0  -0.216
  C  C122  1  0.626100  0.166000  0.354900  1.0  0.193
  C  C123  1  0.599500  0.096400  0.399600  1.0  0.3079
  C  C124  1  0.759700  0.430300  0.318200  1.0  0.1181
  C  C125  1  0.788700  0.498800  0.363800  1.0  0.0937
  C  C126  1  0.017100  0.311100  0.441300  1.0  0.1236
  C  C127  1  0.994200  0.240300  0.397200  1.0  -0.1375
  C  C128  1  0.922100  0.251000  0.354800  1.0  -0.2167
  C  C129  1  0.873900  0.334000  0.354900  1.0  0.1874
  C  C130  1  0.900500  0.403600  0.399600  1.0  0.3071
  C  C131  1  0.069700  0.759700  0.818200  1.0  0.1195
  C  C132  1  0.001200  0.788700  0.863800  1.0  0.0933
  C  C133  1  0.188900  0.017100  0.941300  1.0  0.1218
  C  C134  1  0.259700  0.994200  0.897200  1.0  -0.1391
  C  C135  1  0.249000  0.922100  0.854800  1.0  -0.2162
  C  C136  1  0.166000  0.873900  0.854900  1.0  0.1918
  C  C137  1  0.096400  0.900500  0.899600  1.0  0.3078
  C  C138  1  0.430300  0.740300  0.818200  1.0  0.1207
  C  C139  1  0.498800  0.711300  0.863800  1.0  0.0944
  C  C140  1  0.311100  0.482900  0.941300  1.0  0.127
  C  C141  1  0.240300  0.505800  0.897200  1.0  -0.1416
  C  C142  1  0.251000  0.577900  0.854800  1.0  -0.2152
  C  C143  1  0.334000  0.626100  0.854900  1.0  0.192
  C  C144  1  0.403600  0.599500  0.899600  1.0  0.3068
  C  C145  1  0.740300  0.430300  0.818200  1.0  0.1183
  C  C146  1  0.711300  0.498800  0.863800  1.0  0.0938
  C  C147  1  0.482900  0.311100  0.941300  1.0  0.1268
  C  C148  1  0.505800  0.240300  0.897200  1.0  -0.1411
  C  C149  1  0.577900  0.251000  0.854800  1.0  -0.2154
  C  C150  1  0.626100  0.334000  0.854900  1.0  0.1918
  C  C151  1  0.599500  0.403600  0.899600  1.0  0.3078
  C  C152  1  0.759700  0.069700  0.818200  1.0  0.1182
  C  C153  1  0.788700  0.001200  0.863800  1.0  0.093
  C  C154  1  0.017100  0.188900  0.941300  1.0  0.1213
  C  C155  1  0.994200  0.259700  0.897200  1.0  -0.1374
  C  C156  1  0.922100  0.249000  0.854800  1.0  -0.2176
  C  C157  1  0.873900  0.166000  0.854900  1.0  0.1917
  C  C158  1  0.900500  0.096400  0.899600  1.0  0.3072
  C  C159  1  0.069700  0.740300  0.318200  1.0  0.1193
  C  C160  1  0.001200  0.711300  0.363800  1.0  0.093
  C  C161  1  0.188900  0.482900  0.441300  1.0  0.1211
  C  C162  1  0.259700  0.505800  0.397200  1.0  -0.1388
  C  C163  1  0.249000  0.577900  0.354800  1.0  -0.215
  C  C164  1  0.166000  0.626100  0.354900  1.0  0.199
  C  C165  1  0.096400  0.599500  0.399600  1.0  0.3077
  C  C166  1  0.430300  0.759700  0.318200  1.0  0.12
  C  C167  1  0.498800  0.788700  0.363800  1.0  0.094
  C  C168  1  0.311100  0.017100  0.441300  1.0  0.1274
  C  C169  1  0.240300  0.994200  0.397200  1.0  -0.1436
  C  C170  1  0.251000  0.922100  0.354800  1.0  -0.2166
  C  C171  1  0.334000  0.873900  0.354900  1.0  0.1862
  C  C172  1  0.403600  0.900500  0.399600  1.0  0.307
  C  C173  1  0.259700  0.930300  0.681800  1.0  0.118
  C  C174  1  0.288700  0.998800  0.636200  1.0  0.0939
  C  C175  1  0.517100  0.811100  0.558700  1.0  0.1252
  C  C176  1  0.494200  0.740300  0.602800  1.0  -0.1374
  C  C177  1  0.422100  0.751000  0.645200  1.0  -0.2172
  C  C178  1  0.373900  0.834000  0.645100  1.0  0.1888
  C  C179  1  0.400500  0.903600  0.600400  1.0  0.3072
  C  C180  1  0.240300  0.569700  0.681800  1.0  0.1188
  C  C181  1  0.211300  0.501200  0.636200  1.0  0.0936
  C  C182  1  0.982900  0.688900  0.558700  1.0  0.1269
  C  C183  1  0.005800  0.759700  0.602800  1.0  -0.1388
  C  C184  1  0.077900  0.749000  0.645200  1.0  -0.2172
  C  C185  1  0.126100  0.666000  0.645100  1.0  0.1991
  C  C186  1  0.099500  0.596400  0.600400  1.0  0.308
  C  C187  1  0.930300  0.240300  0.181800  1.0  0.121
  C  C188  1  0.998800  0.211300  0.136200  1.0  0.0943
  C  C189  1  0.811100  0.982900  0.058700  1.0  0.126
  C  C190  1  0.740300  0.005800  0.102800  1.0  -0.1396
  C  C191  1  0.751000  0.077900  0.145200  1.0  -0.2161
  C  C192  1  0.834000  0.126100  0.145100  1.0  0.1918
  C  C193  1  0.903600  0.099500  0.100400  1.0  0.3069
  C  C194  1  0.569700  0.259700  0.181800  1.0  0.1195
  C  C195  1  0.501200  0.288700  0.136200  1.0  0.0936
  C  C196  1  0.688900  0.517100  0.058700  1.0  0.122
  C  C197  1  0.759700  0.494200  0.102800  1.0  -0.1382
  C  C198  1  0.749000  0.422100  0.145200  1.0  -0.2157
  C  C199  1  0.666000  0.373900  0.145100  1.0  0.1924
  C  C200  1  0.596400  0.400500  0.100400  1.0  0.3079
  N  N201  1  0.300200  0.650300  0.187400  1.0  -0.3303
  N  N202  1  0.358400  0.514000  0.095600  1.0  -0.4111
  N  N203  1  0.472100  0.609600  0.057800  1.0  -0.3646
  N  N204  1  0.199800  0.849700  0.187400  1.0  -0.3312
  N  N205  1  0.141600  0.986000  0.095600  1.0  -0.4113
  N  N206  1  0.027900  0.890400  0.057800  1.0  -0.3642
  N  N207  1  0.849700  0.300200  0.687400  1.0  -0.3273
  N  N208  1  0.986000  0.358400  0.595600  1.0  -0.4121
  N  N209  1  0.890400  0.472100  0.557800  1.0  -0.3642
  N  N210  1  0.650300  0.199800  0.687400  1.0  -0.3267
  N  N211  1  0.514000  0.141600  0.595600  1.0  -0.4109
  N  N212  1  0.609600  0.027900  0.557800  1.0  -0.3627
  N  N213  1  0.699800  0.150300  0.312600  1.0  -0.3298
  N  N214  1  0.641600  0.014000  0.404400  1.0  -0.4115
  N  N215  1  0.527900  0.109600  0.442200  1.0  -0.3646
  N  N216  1  0.800200  0.349700  0.312600  1.0  -0.3312
  N  N217  1  0.858400  0.486000  0.404400  1.0  -0.413
  N  N218  1  0.972100  0.390400  0.442200  1.0  -0.3644
  N  N219  1  0.150300  0.800200  0.812600  1.0  -0.3261
  N  N220  1  0.014000  0.858400  0.904400  1.0  -0.4113
  N  N221  1  0.109600  0.972100  0.942200  1.0  -0.3632
  N  N222  1  0.349700  0.699800  0.812600  1.0  -0.3283
  N  N223  1  0.486000  0.641600  0.904400  1.0  -0.4116
  N  N224  1  0.390400  0.527900  0.942200  1.0  -0.3641
  N  N225  1  0.699800  0.349700  0.812600  1.0  -0.3316
  N  N226  1  0.641600  0.486000  0.904400  1.0  -0.4122
  N  N227  1  0.527900  0.390400  0.942200  1.0  -0.3644
  N  N228  1  0.800200  0.150300  0.812600  1.0  -0.3295
  N  N229  1  0.858400  0.014000  0.904400  1.0  -0.4108
  N  N230  1  0.972100  0.109600  0.942200  1.0  -0.3647
  N  N231  1  0.150300  0.699800  0.312600  1.0  -0.3267
  N  N232  1  0.014000  0.641600  0.404400  1.0  -0.4113
  N  N233  1  0.109600  0.527900  0.442200  1.0  -0.3627
  N  N234  1  0.349700  0.800200  0.312600  1.0  -0.3279
  N  N235  1  0.486000  0.858400  0.404400  1.0  -0.4119
  N  N236  1  0.390400  0.972100  0.442200  1.0  -0.3644
  N  N237  1  0.300200  0.849700  0.687400  1.0  -0.3308
  N  N238  1  0.358400  0.986000  0.595600  1.0  -0.4123
  N  N239  1  0.472100  0.890400  0.557800  1.0  -0.3641
  N  N240  1  0.199800  0.650300  0.687400  1.0  -0.3306
  N  N241  1  0.141600  0.514000  0.595600  1.0  -0.4113
  N  N242  1  0.027900  0.609600  0.557800  1.0  -0.3646
  N  N243  1  0.849700  0.199800  0.187400  1.0  -0.3278
  N  N244  1  0.986000  0.141600  0.095600  1.0  -0.4117
  N  N245  1  0.890400  0.027900  0.057800  1.0  -0.3643
  N  N246  1  0.650300  0.300200  0.187400  1.0  -0.3266
  N  N247  1  0.514000  0.358400  0.095600  1.0  -0.4111
  N  N248  1  0.609600  0.472100  0.057800  1.0  -0.3629
