# generated using pymatgen
data_Cu2B3H20C28(NF)12
_symmetry_space_group_name_H-M   'P 1'
_cell_length_a   14.63900000
_cell_length_b   14.63900000
_cell_length_c   20.05600000
_cell_angle_alpha   90.00000000
_cell_angle_beta   90.00000000
_cell_angle_gamma   90.00000000
_symmetry_Int_Tables_number   1
_chemical_formula_structural   Cu2B3H20C28(NF)12
_chemical_formula_sum   'Cu8 B12 H80 C112 N48 F48'
_cell_volume   4298.00723798
_cell_formula_units_Z   4
loop_
 _symmetry_equiv_pos_site_id
 _symmetry_equiv_pos_as_xyz
  1  'x, y, z'
loop_
 _atom_site_type_symbol
 _atom_site_label
 _atom_site_symmetry_multiplicity
 _atom_site_fract_x
 _atom_site_fract_y
 _atom_site_fract_z
 _atom_site_occupancy
 _atom_site_charge
  Cu  Cu1  1  0.500000  0.500000  0.000000  1.0  0.7249
  Cu  Cu2  1  0.000000  0.000000  0.000000  1.0  0.7249
  Cu  Cu3  1  0.000000  0.500000  0.500000  1.0  0.7249
  Cu  Cu4  1  0.500000  0.000000  0.500000  1.0  0.7249
  Cu  Cu5  1  0.750000  0.250000  0.750000  1.0  0.3664
  Cu  Cu6  1  0.250000  0.750000  0.250000  1.0  0.3664
  Cu  Cu7  1  0.250000  0.750000  0.750000  1.0  0.3664
  Cu  Cu8  1  0.750000  0.250000  0.250000  1.0  0.3664
  B  B9  1  0.750000  0.250000  0.000000  1.0  0.8357
  B  B10  1  0.250000  0.750000  0.500000  1.0  0.8357
  B  B11  1  0.250000  0.750000  0.000000  1.0  0.8357
  B  B12  1  0.750000  0.250000  0.500000  1.0  0.8357
  B  B13  1  0.522300  0.522300  0.273800  1.0  1.0276
  B  B14  1  0.977700  0.977700  0.273800  1.0  1.0276
  B  B15  1  0.977700  0.522300  0.773800  1.0  1.0278
  B  B16  1  0.522300  0.977700  0.773800  1.0  1.0273
  B  B17  1  0.477700  0.022300  0.226200  1.0  1.0289
  B  B18  1  0.022300  0.477700  0.226200  1.0  1.0281
  B  B19  1  0.022300  0.022300  0.726200  1.0  1.0283
  B  B20  1  0.477700  0.477700  0.726200  1.0  1.0287
  H  H21  1  0.557600  0.210600  0.210800  1.0  0.0743
  H  H22  1  0.446800  0.257100  0.136900  1.0  0.0707
  H  H23  1  0.696200  0.564300  0.027900  1.0  0.0781
  H  H24  1  0.813400  0.526000  0.101700  1.0  0.1027
  H  H25  1  0.795100  0.407100  0.175500  1.0  0.0977
  H  H26  1  0.942400  0.289400  0.210800  1.0  0.0736
  H  H27  1  0.053200  0.242900  0.136900  1.0  0.0708
  H  H28  1  0.803800  0.935700  0.027900  1.0  0.0774
  H  H29  1  0.686600  0.974000  0.101700  1.0  0.1016
  H  H30  1  0.704900  0.092900  0.175500  1.0  0.0979
  H  H31  1  0.289400  0.557600  0.710800  1.0  0.0733
  H  H32  1  0.242900  0.446800  0.636900  1.0  0.0712
  H  H33  1  0.935700  0.696200  0.527900  1.0  0.0784
  H  H34  1  0.974000  0.813400  0.601700  1.0  0.1019
  H  H35  1  0.092900  0.795100  0.675500  1.0  0.0983
  H  H36  1  0.210600  0.942400  0.710800  1.0  0.0736
  H  H37  1  0.257100  0.053200  0.636900  1.0  0.0712
  H  H38  1  0.564300  0.803800  0.527900  1.0  0.0782
  H  H39  1  0.526000  0.686600  0.601700  1.0  0.1023
  H  H40  1  0.407100  0.704900  0.675500  1.0  0.099
  H  H41  1  0.442400  0.710600  0.289200  1.0  0.0729
  H  H42  1  0.553200  0.757100  0.363100  1.0  0.0707
  H  H43  1  0.303800  0.064300  0.472100  1.0  0.0785
  H  H44  1  0.186600  0.026000  0.398300  1.0  0.1022
  H  H45  1  0.204900  0.907100  0.324500  1.0  0.0976
  H  H46  1  0.057600  0.789400  0.289200  1.0  0.0744
  H  H47  1  0.946800  0.742900  0.363100  1.0  0.0713
  H  H48  1  0.196200  0.435700  0.472100  1.0  0.0776
  H  H49  1  0.313400  0.474000  0.398300  1.0  0.1024
  H  H50  1  0.295100  0.592900  0.324500  1.0  0.098
  H  H51  1  0.710600  0.057600  0.789200  1.0  0.0728
  H  H52  1  0.757100  0.946800  0.863100  1.0  0.0717
  H  H53  1  0.064300  0.196200  0.972100  1.0  0.0788
  H  H54  1  0.026000  0.313400  0.898300  1.0  0.1022
  H  H55  1  0.907100  0.295100  0.824500  1.0  0.0989
  H  H56  1  0.789400  0.442400  0.789200  1.0  0.073
  H  H57  1  0.742900  0.553200  0.863100  1.0  0.0707
  H  H58  1  0.435700  0.303800  0.972100  1.0  0.0783
  H  H59  1  0.474000  0.186600  0.898300  1.0  0.102
  H  H60  1  0.592900  0.204900  0.824500  1.0  0.0979
  H  H61  1  0.442400  0.789400  0.789200  1.0  0.0731
  H  H62  1  0.553200  0.742900  0.863100  1.0  0.071
  H  H63  1  0.303800  0.435700  0.972100  1.0  0.0784
  H  H64  1  0.186600  0.474000  0.898300  1.0  0.102
  H  H65  1  0.204900  0.592900  0.824500  1.0  0.0977
  H  H66  1  0.057600  0.710600  0.789200  1.0  0.0739
  H  H67  1  0.946800  0.757100  0.863100  1.0  0.0711
  H  H68  1  0.196200  0.064300  0.972100  1.0  0.0776
  H  H69  1  0.313400  0.026000  0.898300  1.0  0.1028
  H  H70  1  0.295100  0.907100  0.824500  1.0  0.0975
  H  H71  1  0.710600  0.442400  0.289200  1.0  0.0734
  H  H72  1  0.757100  0.553200  0.363100  1.0  0.0714
  H  H73  1  0.064300  0.303800  0.472100  1.0  0.0789
  H  H74  1  0.026000  0.186600  0.398300  1.0  0.1024
  H  H75  1  0.907100  0.204900  0.324500  1.0  0.0989
  H  H76  1  0.789400  0.057600  0.289200  1.0  0.0728
  H  H77  1  0.742900  0.946800  0.363100  1.0  0.0717
  H  H78  1  0.435700  0.196200  0.472100  1.0  0.0786
  H  H79  1  0.474000  0.313400  0.398300  1.0  0.1023
  H  H80  1  0.592900  0.295100  0.324500  1.0  0.0982
  H  H81  1  0.557600  0.289400  0.710800  1.0  0.0744
  H  H82  1  0.446800  0.242900  0.636900  1.0  0.071
  H  H83  1  0.696200  0.935700  0.527900  1.0  0.0775
  H  H84  1  0.813400  0.974000  0.601700  1.0  0.1023
  H  H85  1  0.795100  0.092900  0.675500  1.0  0.0981
  H  H86  1  0.942400  0.210600  0.710800  1.0  0.0735
  H  H87  1  0.053200  0.257100  0.636900  1.0  0.0704
  H  H88  1  0.803800  0.564300  0.527900  1.0  0.0785
  H  H89  1  0.686600  0.526000  0.601700  1.0  0.1017
  H  H90  1  0.704900  0.407100  0.675500  1.0  0.0978
  H  H91  1  0.289400  0.942400  0.210800  1.0  0.0734
  H  H92  1  0.242900  0.053200  0.136900  1.0  0.0706
  H  H93  1  0.935700  0.803800  0.027900  1.0  0.0776
  H  H94  1  0.974000  0.686600  0.101700  1.0  0.1014
  H  H95  1  0.092900  0.704900  0.175500  1.0  0.0981
  H  H96  1  0.210600  0.557600  0.210800  1.0  0.0732
  H  H97  1  0.257100  0.446800  0.136900  1.0  0.0711
  H  H98  1  0.564300  0.696200  0.027900  1.0  0.0788
  H  H99  1  0.526000  0.813400  0.101700  1.0  0.1022
  H  H100  1  0.407100  0.795100  0.175500  1.0  0.099
  C  C101  1  0.570200  0.261100  0.182500  1.0  0.1297
  C  C102  1  0.503100  0.289400  0.137900  1.0  0.1284
  C  C103  1  0.687000  0.515700  0.058500  1.0  0.1488
  C  C104  1  0.757800  0.492500  0.102400  1.0  -0.1382
  C  C105  1  0.747300  0.422700  0.145500  1.0  -0.2298
  C  C106  1  0.665500  0.373800  0.145700  1.0  0.1911
  C  C107  1  0.596400  0.401600  0.101000  1.0  0.3113
  C  C108  1  0.929800  0.238900  0.182500  1.0  0.1287
  C  C109  1  0.996900  0.210600  0.137900  1.0  0.1298
  C  C110  1  0.813000  0.984300  0.058500  1.0  0.1501
  C  C111  1  0.742200  0.007500  0.102400  1.0  -0.1375
  C  C112  1  0.752700  0.077300  0.145500  1.0  -0.2299
  C  C113  1  0.834500  0.126200  0.145700  1.0  0.1913
  C  C114  1  0.903600  0.098400  0.101000  1.0  0.3102
  C  C115  1  0.238900  0.570200  0.682500  1.0  0.1301
  C  C116  1  0.210600  0.503100  0.637900  1.0  0.1303
  C  C117  1  0.984300  0.687000  0.558500  1.0  0.1496
  C  C118  1  0.007500  0.757800  0.602400  1.0  -0.1382
  C  C119  1  0.077300  0.747300  0.645500  1.0  -0.2301
  C  C120  1  0.126200  0.665500  0.645700  1.0  0.1919
  C  C121  1  0.098400  0.596400  0.601000  1.0  0.3118
  C  C122  1  0.261100  0.929800  0.682500  1.0  0.1297
  C  C123  1  0.289400  0.996900  0.637900  1.0  0.1288
  C  C124  1  0.515700  0.813000  0.558500  1.0  0.149
  C  C125  1  0.492500  0.742200  0.602400  1.0  -0.1397
  C  C126  1  0.422700  0.752700  0.645500  1.0  -0.2285
  C  C127  1  0.373800  0.834500  0.645700  1.0  0.1916
  C  C128  1  0.401600  0.903600  0.601000  1.0  0.3121
  C  C129  1  0.429800  0.761100  0.317500  1.0  0.1287
  C  C130  1  0.496900  0.789400  0.362100  1.0  0.1292
  C  C131  1  0.313000  0.015700  0.441500  1.0  0.1494
  C  C132  1  0.242200  0.992500  0.397600  1.0  -0.1374
  C  C133  1  0.252700  0.922700  0.354500  1.0  -0.2303
  C  C134  1  0.334500  0.873800  0.354300  1.0  0.1911
  C  C135  1  0.403600  0.901600  0.399000  1.0  0.3103
  C  C136  1  0.070200  0.738900  0.317500  1.0  0.1288
  C  C137  1  0.003100  0.710600  0.362100  1.0  0.1289
  C  C138  1  0.187000  0.484300  0.441500  1.0  0.1518
  C  C139  1  0.257800  0.507500  0.397600  1.0  -0.1375
  C  C140  1  0.247300  0.577300  0.354500  1.0  -0.2316
  C  C141  1  0.165500  0.626200  0.354300  1.0  0.191
  C  C142  1  0.096400  0.598400  0.399000  1.0  0.3111
  C  C143  1  0.761100  0.070200  0.817500  1.0  0.1302
  C  C144  1  0.789400  0.003100  0.862100  1.0  0.1299
  C  C145  1  0.015700  0.187000  0.941500  1.0  0.1496
  C  C146  1  0.992500  0.257800  0.897600  1.0  -0.1389
  C  C147  1  0.922700  0.247300  0.854500  1.0  -0.2294
  C  C148  1  0.873800  0.165500  0.854300  1.0  0.1916
  C  C149  1  0.901600  0.096400  0.899000  1.0  0.3117
  C  C150  1  0.738900  0.429800  0.817500  1.0  0.1286
  C  C151  1  0.710600  0.496900  0.862100  1.0  0.1293
  C  C152  1  0.484300  0.313000  0.941500  1.0  0.1504
  C  C153  1  0.507500  0.242200  0.897600  1.0  -0.138
  C  C154  1  0.577300  0.252700  0.854500  1.0  -0.2298
  C  C155  1  0.626200  0.334500  0.854300  1.0  0.1919
  C  C156  1  0.598400  0.403600  0.899000  1.0  0.3118
  C  C157  1  0.429800  0.738900  0.817500  1.0  0.128
  C  C158  1  0.496900  0.710600  0.862100  1.0  0.1292
  C  C159  1  0.313000  0.484300  0.941500  1.0  0.1518
  C  C160  1  0.242200  0.507500  0.897600  1.0  -0.1368
  C  C161  1  0.252700  0.577300  0.854500  1.0  -0.2305
  C  C162  1  0.334500  0.626200  0.854300  1.0  0.1912
  C  C163  1  0.403600  0.598400  0.899000  1.0  0.3102
  C  C164  1  0.070200  0.761100  0.817500  1.0  0.1293
  C  C165  1  0.003100  0.789400  0.862100  1.0  0.1287
  C  C166  1  0.187000  0.015700  0.941500  1.0  0.1493
  C  C167  1  0.257800  0.992500  0.897600  1.0  -0.1381
  C  C168  1  0.247300  0.922700  0.854500  1.0  -0.2308
  C  C169  1  0.165500  0.873800  0.854300  1.0  0.191
  C  C170  1  0.096400  0.901600  0.899000  1.0  0.3111
  C  C171  1  0.761100  0.429800  0.317500  1.0  0.1294
  C  C172  1  0.789400  0.496900  0.362100  1.0  0.1282
  C  C173  1  0.015700  0.313000  0.441500  1.0  0.1501
  C  C174  1  0.992500  0.242200  0.397600  1.0  -0.1395
  C  C175  1  0.922700  0.252700  0.354500  1.0  -0.229
  C  C176  1  0.873800  0.334500  0.354300  1.0  0.1917
  C  C177  1  0.901600  0.403600  0.399000  1.0  0.3118
  C  C178  1  0.738900  0.070200  0.317500  1.0  0.1294
  C  C179  1  0.710600  0.003100  0.362100  1.0  0.1296
  C  C180  1  0.484300  0.187000  0.441500  1.0  0.1507
  C  C181  1  0.507500  0.257800  0.397600  1.0  -0.1373
  C  C182  1  0.577300  0.247300  0.354500  1.0  -0.2299
  C  C183  1  0.626200  0.165500  0.354300  1.0  0.1919
  C  C184  1  0.598400  0.096400  0.399000  1.0  0.3116
  C  C185  1  0.570200  0.238900  0.682500  1.0  0.1292
  C  C186  1  0.503100  0.210600  0.637900  1.0  0.1291
  C  C187  1  0.687000  0.984300  0.558500  1.0  0.1502
  C  C188  1  0.757800  0.007500  0.602400  1.0  -0.1381
  C  C189  1  0.747300  0.077300  0.645500  1.0  -0.2314
  C  C190  1  0.665500  0.126200  0.645700  1.0  0.1911
  C  C191  1  0.596400  0.098400  0.601000  1.0  0.3113
  C  C192  1  0.929800  0.261100  0.682500  1.0  0.1293
  C  C193  1  0.996900  0.289400  0.637900  1.0  0.1294
  C  C194  1  0.813000  0.515700  0.558500  1.0  0.1492
  C  C195  1  0.742200  0.492500  0.602400  1.0  -0.1378
  C  C196  1  0.752700  0.422700  0.645500  1.0  -0.2292
  C  C197  1  0.834500  0.373800  0.645700  1.0  0.1912
  C  C198  1  0.903600  0.401600  0.601000  1.0  0.3104
  C  C199  1  0.238900  0.929800  0.182500  1.0  0.1289
  C  C200  1  0.210600  0.996900  0.137900  1.0  0.1295
  C  C201  1  0.984300  0.813000  0.058500  1.0  0.149
  C  C202  1  0.007500  0.742200  0.102400  1.0  -0.1386
  C  C203  1  0.077300  0.752700  0.145500  1.0  -0.2298
  C  C204  1  0.126200  0.834500  0.145700  1.0  0.1918
  C  C205  1  0.098400  0.903600  0.101000  1.0  0.3121
  C  C206  1  0.261100  0.570200  0.182500  1.0  0.131
  C  C207  1  0.289400  0.503100  0.137900  1.0  0.1305
  C  C208  1  0.515700  0.687000  0.058500  1.0  0.1484
  C  C209  1  0.492500  0.757800  0.102400  1.0  -0.1394
  C  C210  1  0.422700  0.747300  0.145500  1.0  -0.229
  C  C211  1  0.373800  0.665500  0.145700  1.0  0.1916
  C  C212  1  0.401600  0.596400  0.101000  1.0  0.3119
  N  N213  1  0.650900  0.301600  0.187100  1.0  -0.3645
  N  N214  1  0.514200  0.359600  0.096800  1.0  -0.4481
  N  N215  1  0.608100  0.472500  0.058200  1.0  -0.3271
  N  N216  1  0.849100  0.198400  0.187100  1.0  -0.3668
  N  N217  1  0.985800  0.140400  0.096800  1.0  -0.4488
  N  N218  1  0.891900  0.027500  0.058200  1.0  -0.3281
  N  N219  1  0.198400  0.650900  0.687100  1.0  -0.3647
  N  N220  1  0.140400  0.514200  0.596800  1.0  -0.4532
  N  N221  1  0.027500  0.608100  0.558200  1.0  -0.3269
  N  N222  1  0.301600  0.849100  0.687100  1.0  -0.3648
  N  N223  1  0.359600  0.985800  0.596800  1.0  -0.4532
  N  N224  1  0.472500  0.891900  0.558200  1.0  -0.3261
  N  N225  1  0.349100  0.801600  0.312900  1.0  -0.3677
  N  N226  1  0.485800  0.859600  0.403200  1.0  -0.4493
  N  N227  1  0.391900  0.972500  0.441800  1.0  -0.328
  N  N228  1  0.150900  0.698400  0.312900  1.0  -0.3653
  N  N229  1  0.014200  0.640400  0.403200  1.0  -0.4493
  N  N230  1  0.108100  0.527500  0.441800  1.0  -0.3269
  N  N231  1  0.801600  0.150900  0.812900  1.0  -0.3647
  N  N232  1  0.859600  0.014200  0.903200  1.0  -0.4524
  N  N233  1  0.972500  0.108100  0.941800  1.0  -0.3259
  N  N234  1  0.698400  0.349100  0.812900  1.0  -0.3664
  N  N235  1  0.640400  0.485800  0.903200  1.0  -0.4525
  N  N236  1  0.527500  0.391900  0.941800  1.0  -0.3269
  N  N237  1  0.349100  0.698400  0.812900  1.0  -0.3675
  N  N238  1  0.485800  0.640400  0.903200  1.0  -0.4496
  N  N239  1  0.391900  0.527500  0.941800  1.0  -0.3277
  N  N240  1  0.150900  0.801600  0.812900  1.0  -0.3654
  N  N241  1  0.014200  0.859600  0.903200  1.0  -0.4488
  N  N242  1  0.108100  0.972500  0.941800  1.0  -0.3269
  N  N243  1  0.801600  0.349100  0.312900  1.0  -0.3656
  N  N244  1  0.859600  0.485800  0.403200  1.0  -0.4532
  N  N245  1  0.972500  0.391900  0.441800  1.0  -0.3261
  N  N246  1  0.698400  0.150900  0.312900  1.0  -0.3652
  N  N247  1  0.640400  0.014200  0.403200  1.0  -0.4527
  N  N248  1  0.527500  0.108100  0.441800  1.0  -0.3267
  N  N249  1  0.650900  0.198400  0.687100  1.0  -0.3645
  N  N250  1  0.514200  0.140400  0.596800  1.0  -0.4486
  N  N251  1  0.608100  0.027500  0.558200  1.0  -0.3272
  N  N252  1  0.849100  0.301600  0.687100  1.0  -0.3671
  N  N253  1  0.985800  0.359600  0.596800  1.0  -0.4489
  N  N254  1  0.891900  0.472500  0.558200  1.0  -0.3281
  N  N255  1  0.198400  0.849100  0.187100  1.0  -0.3657
  N  N256  1  0.140400  0.985800  0.096800  1.0  -0.4521
  N  N257  1  0.027500  0.891900  0.058200  1.0  -0.3267
  N  N258  1  0.301600  0.650900  0.187100  1.0  -0.364
  N  N259  1  0.359600  0.514200  0.096800  1.0  -0.4534
  N  N260  1  0.472500  0.608100  0.058200  1.0  -0.3262
  F  F261  1  0.728200  0.177700  0.955700  1.0  -0.322
  F  F262  1  0.771800  0.322300  0.955700  1.0  -0.3211
  F  F263  1  0.677700  0.228200  0.044300  1.0  -0.3211
  F  F264  1  0.822300  0.271800  0.044300  1.0  -0.3182
  F  F265  1  0.322300  0.728200  0.455700  1.0  -0.3187
  F  F266  1  0.177700  0.771800  0.455700  1.0  -0.3204
  F  F267  1  0.271800  0.677700  0.544300  1.0  -0.3221
  F  F268  1  0.228200  0.822300  0.544300  1.0  -0.3218
  F  F269  1  0.271800  0.822300  0.044300  1.0  -0.3213
  F  F270  1  0.228200  0.677700  0.044300  1.0  -0.3221
  F  F271  1  0.322300  0.771800  0.955700  1.0  -0.3182
  F  F272  1  0.177700  0.728200  0.955700  1.0  -0.3208
  F  F273  1  0.677700  0.271800  0.544300  1.0  -0.3204
  F  F274  1  0.822300  0.228200  0.544300  1.0  -0.319
  F  F275  1  0.728200  0.322300  0.455700  1.0  -0.3219
  F  F276  1  0.771800  0.177700  0.455700  1.0  -0.3216
  F  F277  1  0.434700  0.544300  0.269500  1.0  -0.2456
  F  F278  1  0.544300  0.434700  0.269500  1.0  -0.2458
  F  F279  1  0.573500  0.573500  0.317800  1.0  -0.2158
  F  F280  1  0.552500  0.552500  0.211400  1.0  -0.2877
  F  F281  1  0.065300  0.955700  0.269500  1.0  -0.2448
  F  F282  1  0.955700  0.065300  0.269500  1.0  -0.2456
  F  F283  1  0.926500  0.926500  0.317800  1.0  -0.2161
  F  F284  1  0.947500  0.947500  0.211400  1.0  -0.2876
  F  F285  1  0.955700  0.434700  0.769500  1.0  -0.2462
  F  F286  1  0.065300  0.544300  0.769500  1.0  -0.246
  F  F287  1  0.926500  0.573500  0.817800  1.0  -0.2163
  F  F288  1  0.947500  0.552500  0.711400  1.0  -0.2874
  F  F289  1  0.544300  0.065300  0.769500  1.0  -0.2461
  F  F290  1  0.434700  0.955700  0.769500  1.0  -0.2443
  F  F291  1  0.573500  0.926500  0.817800  1.0  -0.216
  F  F292  1  0.552500  0.947500  0.711400  1.0  -0.2876
  F  F293  1  0.565300  0.044300  0.230500  1.0  -0.2457
  F  F294  1  0.455700  0.934700  0.230500  1.0  -0.2458
  F  F295  1  0.426500  0.073500  0.182200  1.0  -0.2195
  F  F296  1  0.447500  0.052500  0.288600  1.0  -0.286
  F  F297  1  0.934700  0.455700  0.230500  1.0  -0.2438
  F  F298  1  0.044300  0.565300  0.230500  1.0  -0.2459
  F  F299  1  0.073500  0.426500  0.182200  1.0  -0.2195
  F  F300  1  0.052500  0.447500  0.288600  1.0  -0.2862
  F  F301  1  0.044300  0.934700  0.730500  1.0  -0.2451
  F  F302  1  0.934700  0.044300  0.730500  1.0  -0.2455
  F  F303  1  0.073500  0.073500  0.682200  1.0  -0.22
  F  F304  1  0.052500  0.052500  0.788600  1.0  -0.2864
  F  F305  1  0.455700  0.565300  0.730500  1.0  -0.2455
  F  F306  1  0.565300  0.455700  0.730500  1.0  -0.2443
  F  F307  1  0.426500  0.426500  0.682200  1.0  -0.2191
  F  F308  1  0.447500  0.447500  0.788600  1.0  -0.2858
