# generated using pymatgen
data_EuAgH24C24(NO2)4
_symmetry_space_group_name_H-M   'P 1'
_cell_length_a   7.70920000
_cell_length_b   9.11320000
_cell_length_c   12.28390000
_cell_angle_alpha   90.00000000
_cell_angle_beta   90.00000000
_cell_angle_gamma   90.00000000
_symmetry_Int_Tables_number   1
_chemical_formula_structural   EuAgH24C24(NO2)4
_chemical_formula_sum   'Eu1 Ag1 H24 C24 N4 O8'
_cell_volume   863.01130846
_cell_formula_units_Z   1
loop_
 _symmetry_equiv_pos_site_id
 _symmetry_equiv_pos_as_xyz
  1  'x, y, z'
loop_
 _atom_site_type_symbol
 _atom_site_label
 _atom_site_symmetry_multiplicity
 _atom_site_fract_x
 _atom_site_fract_y
 _atom_site_fract_z
 _atom_site_occupancy
 _atom_site_charge
  Eu  Eu1  1  0.000000  0.500000  0.500000  1.0  2.0589
  Ag  Ag2  1  0.500000  0.000000  0.000000  1.0  0.3479
  H  H3  1  0.452900  0.663700  0.401500  1.0  0.1438
  H  H4  1  0.471500  0.667900  0.271800  1.0  0.1386
  H  H5  1  0.487500  0.816300  0.340800  1.0  0.1498
  H  H6  1  0.210500  0.808900  0.196600  1.0  0.1591
  H  H7  1  0.036700  0.825500  0.126500  1.0  0.1432
  H  H8  1  0.141900  0.674100  0.125000  1.0  0.1635
  H  H9  1  0.547100  0.336300  0.401500  1.0  0.1441
  H  H10  1  0.528500  0.332100  0.271800  1.0  0.1379
  H  H11  1  0.512500  0.183700  0.340800  1.0  0.1494
  H  H12  1  0.789500  0.191100  0.196600  1.0  0.1595
  H  H13  1  0.963300  0.174500  0.126500  1.0  0.1425
  H  H14  1  0.858100  0.325900  0.125000  1.0  0.163
  H  H15  1  0.547100  0.663700  0.598500  1.0  0.1448
  H  H16  1  0.528500  0.667900  0.728200  1.0  0.1385
  H  H17  1  0.512500  0.816300  0.659200  1.0  0.1493
  H  H18  1  0.789500  0.808900  0.803400  1.0  0.1591
  H  H19  1  0.963300  0.825500  0.873500  1.0  0.1424
  H  H20  1  0.858100  0.674100  0.875000  1.0  0.163
  H  H21  1  0.452900  0.336300  0.598500  1.0  0.1447
  H  H22  1  0.471500  0.332100  0.728200  1.0  0.1377
  H  H23  1  0.487500  0.183700  0.659200  1.0  0.1492
  H  H24  1  0.210500  0.191100  0.803400  1.0  0.1593
  H  H25  1  0.036700  0.174500  0.873500  1.0  0.1435
  H  H26  1  0.141900  0.325900  0.875000  1.0  0.1629
  C  C27  1  0.512400  0.710800  0.340300  1.0  -0.3638
  C  C28  1  0.705800  0.687000  0.350800  1.0  0.3599
  C  C29  1  0.817900  0.725200  0.263700  1.0  -0.0344
  C  C30  1  0.001300  0.703500  0.266100  1.0  0.3953
  C  C31  1  0.106900  0.757800  0.170000  1.0  -0.4199
  C  C32  1  0.741100  0.799000  0.173200  1.0  0.305
  C  C33  1  0.487600  0.289200  0.340300  1.0  -0.3644
  C  C34  1  0.294200  0.313000  0.350800  1.0  0.3601
  C  C35  1  0.182100  0.274800  0.263700  1.0  -0.0351
  C  C36  1  0.998700  0.296500  0.266100  1.0  0.3953
  C  C37  1  0.893100  0.242200  0.170000  1.0  -0.4188
  C  C38  1  0.258900  0.201000  0.173200  1.0  0.304
  C  C39  1  0.487600  0.710800  0.659700  1.0  -0.3646
  C  C40  1  0.294200  0.687000  0.649200  1.0  0.3608
  C  C41  1  0.182100  0.725200  0.736300  1.0  -0.0348
  C  C42  1  0.998700  0.703500  0.733900  1.0  0.3945
  C  C43  1  0.893100  0.757800  0.830000  1.0  -0.4191
  C  C44  1  0.258900  0.799000  0.826800  1.0  0.304
  C  C45  1  0.512400  0.289200  0.659700  1.0  -0.3633
  C  C46  1  0.705800  0.313000  0.649200  1.0  0.3606
  C  C47  1  0.817900  0.274800  0.736300  1.0  -0.0352
  C  C48  1  0.001300  0.296500  0.733900  1.0  0.395
  C  C49  1  0.106900  0.242200  0.830000  1.0  -0.4197
  C  C50  1  0.741100  0.201000  0.826800  1.0  0.3042
  N  N51  1  0.676100  0.855200  0.101100  1.0  -0.4648
  N  N52  1  0.323900  0.144800  0.101100  1.0  -0.465
  N  N53  1  0.323900  0.855200  0.898900  1.0  -0.4653
  N  N54  1  0.676100  0.144800  0.898900  1.0  -0.4642
  O  O55  1  0.758000  0.632000  0.438700  1.0  -0.6412
  O  O56  1  0.078700  0.646300  0.344100  1.0  -0.635
  O  O57  1  0.242000  0.368000  0.438700  1.0  -0.641
  O  O58  1  0.921300  0.353700  0.344100  1.0  -0.6343
  O  O59  1  0.242000  0.632000  0.561300  1.0  -0.6399
  O  O60  1  0.921300  0.646300  0.655900  1.0  -0.6339
  O  O61  1  0.758000  0.368000  0.561300  1.0  -0.6413
  O  O62  1  0.078700  0.353700  0.655900  1.0  -0.6351
