# generated using pymatgen
data_YbAgH24C24(NO2)4
_symmetry_space_group_name_H-M   'P 1'
_cell_length_a   7.68350000
_cell_length_b   8.68050000
_cell_length_c   12.35400000
_cell_angle_alpha   90.00000000
_cell_angle_beta   90.00000000
_cell_angle_gamma   90.00000000
_symmetry_Int_Tables_number   1
_chemical_formula_structural   YbAgH24C24(NO2)4
_chemical_formula_sum   'Yb1 Ag1 H24 C24 N4 O8'
_cell_volume   823.97006510
_cell_formula_units_Z   1
loop_
 _symmetry_equiv_pos_site_id
 _symmetry_equiv_pos_as_xyz
  1  'x, y, z'
loop_
 _atom_site_type_symbol
 _atom_site_label
 _atom_site_symmetry_multiplicity
 _atom_site_fract_x
 _atom_site_fract_y
 _atom_site_fract_z
 _atom_site_occupancy
 _atom_site_charge
  Yb  Yb1  1  0.500000  0.000000  0.500000  1.0  1.0644
  Ag  Ag2  1  0.000000  0.500000  0.000000  1.0  0.4006
  H  H3  1  0.691500  0.649400  0.793800  1.0  0.1623
  H  H4  1  0.537500  0.691400  0.875900  1.0  0.154
  H  H5  1  0.683900  0.816500  0.848300  1.0  0.1718
  H  H6  1  0.041700  0.180200  0.588700  1.0  0.1461
  H  H7  1  0.029000  0.170600  0.717800  1.0  0.149
  H  H8  1  0.004400  0.332600  0.657800  1.0  0.1548
  H  H9  1  0.308500  0.350600  0.793800  1.0  0.1633
  H  H10  1  0.462500  0.308600  0.875900  1.0  0.1537
  H  H11  1  0.316100  0.183500  0.848300  1.0  0.172
  H  H12  1  0.958300  0.819800  0.588700  1.0  0.1446
  H  H13  1  0.971000  0.829400  0.717800  1.0  0.1493
  H  H14  1  0.995600  0.667400  0.657800  1.0  0.156
  H  H15  1  0.308500  0.649400  0.206200  1.0  0.1633
  H  H16  1  0.462500  0.691400  0.124100  1.0  0.1531
  H  H17  1  0.316100  0.816500  0.151700  1.0  0.1721
  H  H18  1  0.958300  0.180200  0.411300  1.0  0.1452
  H  H19  1  0.971000  0.170600  0.282200  1.0  0.1496
  H  H20  1  0.995600  0.332600  0.342200  1.0  0.1547
  H  H21  1  0.691500  0.350600  0.206200  1.0  0.1628
  H  H22  1  0.537500  0.308600  0.124100  1.0  0.1527
  H  H23  1  0.683900  0.183500  0.151700  1.0  0.172
  H  H24  1  0.041700  0.819800  0.411300  1.0  0.1465
  H  H25  1  0.029000  0.829400  0.282200  1.0  0.1505
  H  H26  1  0.004400  0.667400  0.342200  1.0  0.1565
  C  C27  1  0.754600  0.295800  0.823800  1.0  0.3825
  C  C28  1  0.676800  0.227800  0.730700  1.0  0.0195
  C  C29  1  0.494100  0.210800  0.726200  1.0  0.3731
  C  C30  1  0.211000  0.808000  0.644500  1.0  0.3535
  C  C31  1  0.614100  0.731600  0.819100  1.0  -0.4049
  C  C32  1  0.983200  0.221500  0.652900  1.0  -0.3529
  C  C33  1  0.245400  0.704200  0.823800  1.0  0.3828
  C  C34  1  0.323200  0.772200  0.730700  1.0  0.0194
  C  C35  1  0.505900  0.789200  0.726200  1.0  0.3734
  C  C36  1  0.789000  0.192000  0.644500  1.0  0.3545
  C  C37  1  0.385900  0.268400  0.819100  1.0  -0.406
  C  C38  1  0.016800  0.778500  0.652900  1.0  -0.3527
  C  C39  1  0.245400  0.295800  0.176200  1.0  0.3844
  C  C40  1  0.323200  0.227800  0.269300  1.0  0.0195
  C  C41  1  0.505900  0.210800  0.273800  1.0  0.3734
  C  C42  1  0.789000  0.808000  0.355500  1.0  0.3536
  C  C43  1  0.385900  0.731600  0.180900  1.0  -0.4045
  C  C44  1  0.016800  0.221500  0.347100  1.0  -0.3512
  C  C45  1  0.754600  0.704200  0.176200  1.0  0.3851
  C  C46  1  0.676800  0.772200  0.269300  1.0  0.019
  C  C47  1  0.494100  0.789200  0.273800  1.0  0.3736
  C  C48  1  0.211000  0.192000  0.355500  1.0  0.3544
  C  C49  1  0.614100  0.268400  0.180900  1.0  -0.406
  C  C50  1  0.983200  0.778500  0.347100  1.0  -0.3543
  N  N51  1  0.822000  0.351100  0.897400  1.0  -0.5053
  N  N52  1  0.178000  0.648900  0.897400  1.0  -0.5066
  N  N53  1  0.178000  0.351100  0.102600  1.0  -0.5079
  N  N54  1  0.822000  0.648900  0.102600  1.0  -0.508
  O  O55  1  0.415600  0.149200  0.647500  1.0  -0.5943
  O  O56  1  0.263800  0.865400  0.557500  1.0  -0.5742
  O  O57  1  0.584400  0.850800  0.647500  1.0  -0.5956
  O  O58  1  0.736200  0.134600  0.557500  1.0  -0.574
  O  O59  1  0.584400  0.149200  0.352500  1.0  -0.599
  O  O60  1  0.736200  0.865400  0.442500  1.0  -0.5745
  O  O61  1  0.415600  0.850800  0.352500  1.0  -0.5955
  O  O62  1  0.263800  0.134600  0.442500  1.0  -0.5752
