# generated using pymatgen
data_Ce2H14W12C10(N2O17)3
_symmetry_space_group_name_H-M   'P 1'
_cell_length_a   12.28300000
_cell_length_b   21.74300000
_cell_length_c   22.75700000
_cell_angle_alpha   90.00000000
_cell_angle_beta   91.63100000
_cell_angle_gamma   90.00000000
_symmetry_Int_Tables_number   1
_chemical_formula_structural   Ce2H14W12C10(N2O17)3
_chemical_formula_sum   'Ce8 H56 W48 C40 N24 O204'
_cell_volume   6075.23304728
_cell_formula_units_Z   4
loop_
 _symmetry_equiv_pos_site_id
 _symmetry_equiv_pos_as_xyz
  1  'x, y, z'
loop_
 _atom_site_type_symbol
 _atom_site_label
 _atom_site_symmetry_multiplicity
 _atom_site_fract_x
 _atom_site_fract_y
 _atom_site_fract_z
 _atom_site_occupancy
 _atom_site_charge
  Ce  Ce1  1  0.853230  0.114430  0.916540  1.0  2.1891
  Ce  Ce2  1  0.366710  0.211260  0.914770  1.0  2.0858
  Ce  Ce3  1  0.146770  0.614430  0.583460  1.0  2.1891
  Ce  Ce4  1  0.633290  0.711260  0.585230  1.0  2.0849
  Ce  Ce5  1  0.146770  0.885570  0.083460  1.0  2.1887
  Ce  Ce6  1  0.633290  0.788740  0.085230  1.0  2.0849
  Ce  Ce7  1  0.853230  0.385570  0.416540  1.0  2.1884
  Ce  Ce8  1  0.366710  0.288740  0.414770  1.0  2.0858
  H  H9  1  0.876800  0.067700  0.762200  1.0  0.0906
  H  H10  1  0.795400  0.082100  0.666667  1.0  0.1216
  H  H11  1  0.542900  0.153600  0.739900  1.0  0.0671
  H  H12  1  0.364400  0.237200  0.759100  1.0  0.0889
  H  H13  1  0.273400  0.218100  0.671400  1.0  0.1051
  H  H14  1  0.016700  0.166800  0.760400  1.0  0.106
  H  H15  1  0.123200  0.567700  0.737800  1.0  0.091
  H  H16  1  0.204600  0.582100  0.833400  1.0  0.1232
  H  H17  1  0.457100  0.653600  0.760100  1.0  0.0676
  H  H18  1  0.635600  0.737200  0.740900  1.0  0.0896
  H  H19  1  0.726600  0.718100  0.828600  1.0  0.1047
  H  H20  1  0.983300  0.666800  0.739600  1.0  0.106
  H  H21  1  0.123200  0.932300  0.237800  1.0  0.0912
  H  H22  1  0.204600  0.917900  0.333400  1.0  0.1231
  H  H23  1  0.457100  0.846400  0.260100  1.0  0.0676
  H  H24  1  0.635600  0.762800  0.240900  1.0  0.0896
  H  H25  1  0.726600  0.781900  0.328600  1.0  0.1047
  H  H26  1  0.983300  0.833200  0.239600  1.0  0.106
  H  H27  1  0.876800  0.432300  0.262200  1.0  0.0907
  H  H28  1  0.795400  0.417900  0.166600  1.0  0.122
  H  H29  1  0.542900  0.346400  0.239900  1.0  0.067
  H  H30  1  0.364400  0.262800  0.259100  1.0  0.0889
  H  H31  1  0.273400  0.281900  0.171400  1.0  0.1051
  H  H32  1  0.016700  0.333200  0.260400  1.0  0.106
  H  H33  1  0.992700  0.333800  0.907400  1.0  0.162
  H  H34  1  0.025500  0.332000  0.974500  1.0  0.2011
  H  H35  1  0.103900  0.304400  0.928200  1.0  0.1253
  H  H36  1  0.994100  0.271100  0.941400  1.0  0.1472
  H  H37  1  0.185600  0.428200  0.834200  1.0  0.1854
  H  H38  1  0.280000  0.449900  0.877000  1.0  0.2054
  H  H39  1  0.300500  0.397000  0.831800  1.0  0.1426
  H  H40  1  0.226300  0.385300  0.885600  1.0  0.1304
  H  H41  1  0.007300  0.833800  0.592600  1.0  0.161
  H  H42  1  0.974500  0.832000  0.525500  1.0  0.1994
  H  H43  1  0.896100  0.804400  0.571800  1.0  0.1199
  H  H44  1  0.005900  0.771100  0.558600  1.0  0.1448
  H  H45  1  0.814400  0.928200  0.665800  1.0  0.1862
  H  H46  1  0.720000  0.949900  0.623000  1.0  0.2079
  H  H47  1  0.699500  0.897000  0.668200  1.0  0.1443
  H  H48  1  0.773700  0.885300  0.614400  1.0  0.1299
  H  H49  1  0.007300  0.666200  0.092600  1.0  0.1605
  H  H50  1  0.974500  0.668000  0.025500  1.0  0.1982
  H  H51  1  0.896100  0.695600  0.071800  1.0  0.1193
  H  H52  1  0.005900  0.728900  0.058600  1.0  0.1453
  H  H53  1  0.814400  0.571800  0.165800  1.0  0.1866
  H  H54  1  0.720000  0.550100  0.123000  1.0  0.2041
  H  H55  1  0.699500  0.603000  0.168200  1.0  0.1436
  H  H56  1  0.773700  0.614700  0.114400  1.0  0.129
  H  H57  1  0.992700  0.166200  0.407400  1.0  0.1614
  H  H58  1  0.025500  0.168000  0.474500  1.0  0.2005
  H  H59  1  0.103900  0.195600  0.428200  1.0  0.1251
  H  H60  1  0.994100  0.228900  0.441400  1.0  0.1477
  H  H61  1  0.185600  0.071800  0.334200  1.0  0.1852
  H  H62  1  0.280000  0.050100  0.377000  1.0  0.2048
  H  H63  1  0.300500  0.103000  0.331800  1.0  0.1429
  H  H64  1  0.226300  0.114700  0.385600  1.0  0.1305
  W  W65  1  0.683230  0.534140  0.648330  1.0  2.2549
  W  W66  1  0.758560  0.403290  0.588630  1.0  2.4796
  W  W67  1  0.940970  0.487210  0.664170  1.0  2.453
  W  W68  1  0.006050  0.356920  0.756530  1.0  2.2681
  W  W69  1  0.803590  0.281470  0.821900  1.0  2.2055
  W  W70  1  0.826290  0.271340  0.675750  1.0  2.4689
  W  W71  1  0.547780  0.319480  0.658740  1.0  2.5342
  W  W72  1  0.529120  0.333420  0.804710  1.0  2.3483
  W  W73  1  0.467120  0.454320  0.718490  1.0  2.3562
  W  W74  1  0.656630  0.544800  0.805360  1.0  2.3801
  W  W75  1  0.920680  0.499030  0.821600  1.0  2.4601
  W  W76  1  0.721490  0.421140  0.891400  1.0  2.3598
  W  W77  1  0.316770  0.034140  0.851670  1.0  2.2521
  W  W78  1  0.241440  0.903290  0.911370  1.0  2.481
  W  W79  1  0.059030  0.987210  0.835830  1.0  2.4539
  W  W80  1  0.993950  0.856920  0.743470  1.0  2.2698
  W  W81  1  0.196410  0.781470  0.678100  1.0  2.1983
  W  W82  1  0.173710  0.771340  0.824250  1.0  2.4663
  W  W83  1  0.452220  0.819480  0.841260  1.0  2.5307
  W  W84  1  0.470880  0.833420  0.695290  1.0  2.3466
  W  W85  1  0.532880  0.954320  0.781510  1.0  2.3564
  W  W86  1  0.343370  0.044800  0.694640  1.0  2.384
  W  W87  1  0.079320  0.999030  0.678400  1.0  2.464
  W  W88  1  0.278510  0.921140  0.608600  1.0  2.3624
  W  W89  1  0.316770  0.465860  0.351670  1.0  2.251
  W  W90  1  0.241440  0.596710  0.411370  1.0  2.4825
  W  W91  1  0.059030  0.512790  0.335830  1.0  2.4536
  W  W92  1  0.993950  0.643080  0.243470  1.0  2.2701
  W  W93  1  0.196410  0.718530  0.178100  1.0  2.1984
  W  W94  1  0.173710  0.728660  0.324250  1.0  2.4664
  W  W95  1  0.452220  0.680520  0.341260  1.0  2.532
  W  W96  1  0.470880  0.666580  0.195290  1.0  2.3467
  W  W97  1  0.532880  0.545680  0.281510  1.0  2.3559
  W  W98  1  0.343370  0.455200  0.194640  1.0  2.3839
  W  W99  1  0.079320  0.500970  0.178400  1.0  2.464
  W  W100  1  0.278510  0.578860  0.108600  1.0  2.3637
  W  W101  1  0.683230  0.965860  0.148330  1.0  2.2548
  W  W102  1  0.758560  0.096710  0.088630  1.0  2.4796
  W  W103  1  0.940970  0.012790  0.164170  1.0  2.4525
  W  W104  1  0.006050  0.143080  0.256530  1.0  2.2685
  W  W105  1  0.803590  0.218530  0.321900  1.0  2.2055
  W  W106  1  0.826290  0.228660  0.175750  1.0  2.4686
  W  W107  1  0.547780  0.180520  0.158740  1.0  2.5344
  W  W108  1  0.529120  0.166580  0.304710  1.0  2.3485
  W  W109  1  0.467120  0.045680  0.218490  1.0  2.3559
  W  W110  1  0.656630  0.955200  0.305360  1.0  2.3796
  W  W111  1  0.920680  0.000970  0.321600  1.0  2.4597
  W  W112  1  0.721490  0.078860  0.391400  1.0  2.3603
  C  C113  1  0.807000  0.087800  0.758100  1.0  0.1257
  C  C114  1  0.760000  0.095000  0.701500  1.0  0.1143
  C  C115  1  0.616000  0.137700  0.743100  1.0  0.1902
  C  C116  1  0.661000  0.131200  0.800600  1.0  0.0186
  C  C117  1  0.605000  0.147800  0.859300  1.0  0.6787
  C  C118  1  0.294000  0.218300  0.759800  1.0  0.173
  C  C119  1  0.238000  0.211000  0.707900  1.0  0.1085
  C  C120  1  0.091000  0.179900  0.759700  1.0  0.1491
  C  C121  1  0.149000  0.184900  0.809600  1.0  0.2146
  C  C122  1  0.114000  0.174100  0.868100  1.0  0.5662
  C  C123  1  0.193000  0.587800  0.741900  1.0  0.1253
  C  C124  1  0.240000  0.595000  0.798500  1.0  0.1152
  C  C125  1  0.384000  0.637700  0.756900  1.0  0.1901
  C  C126  1  0.339000  0.631200  0.699400  1.0  0.0199
  C  C127  1  0.395000  0.647800  0.640700  1.0  0.6771
  C  C128  1  0.706000  0.718300  0.740200  1.0  0.1733
  C  C129  1  0.762000  0.711000  0.792100  1.0  0.1072
  C  C130  1  0.909000  0.679900  0.740300  1.0  0.1487
  C  C131  1  0.851000  0.684900  0.690400  1.0  0.2142
  C  C132  1  0.886000  0.674100  0.631900  1.0  0.5673
  C  C133  1  0.193000  0.912200  0.241900  1.0  0.1253
  C  C134  1  0.240000  0.905000  0.298500  1.0  0.1147
  C  C135  1  0.384000  0.862300  0.256900  1.0  0.1902
  C  C136  1  0.339000  0.868800  0.199400  1.0  0.02
  C  C137  1  0.395000  0.852200  0.140700  1.0  0.6767
  C  C138  1  0.706000  0.781700  0.240200  1.0  0.1734
  C  C139  1  0.762000  0.789000  0.292100  1.0  0.1075
  C  C140  1  0.909000  0.820100  0.240300  1.0  0.1487
  C  C141  1  0.851000  0.815100  0.190400  1.0  0.2141
  C  C142  1  0.886000  0.825900  0.131900  1.0  0.5666
  C  C143  1  0.807000  0.412200  0.258100  1.0  0.126
  C  C144  1  0.760000  0.405000  0.201500  1.0  0.1151
  C  C145  1  0.616000  0.362300  0.243100  1.0  0.1902
  C  C146  1  0.661000  0.368800  0.300600  1.0  0.0184
  C  C147  1  0.605000  0.352200  0.359300  1.0  0.6781
  C  C148  1  0.294000  0.281700  0.259800  1.0  0.1731
  C  C149  1  0.238000  0.289000  0.207900  1.0  0.1091
  C  C150  1  0.091000  0.320100  0.259700  1.0  0.1489
  C  C151  1  0.149000  0.315100  0.309600  1.0  0.2144
  C  C152  1  0.114000  0.325900  0.368100  1.0  0.5654
  N  N153  1  0.258800  0.202000  0.809800  1.0  -0.3972
  N  N154  1  0.136000  0.193000  0.706600  1.0  -0.4253
  N  N155  1  0.760400  0.107000  0.805300  1.0  -0.4033
  N  N156  1  0.658000  0.122600  0.697800  1.0  -0.2938
  N  N157  1  0.741200  0.702000  0.690200  1.0  -0.3969
  N  N158  1  0.864000  0.693000  0.793400  1.0  -0.4263
  N  N159  1  0.239600  0.607000  0.694700  1.0  -0.4033
  N  N160  1  0.342000  0.622600  0.802200  1.0  -0.295
  N  N161  1  0.741200  0.798000  0.190200  1.0  -0.3967
  N  N162  1  0.864000  0.807000  0.293400  1.0  -0.4268
  N  N163  1  0.239600  0.893000  0.194700  1.0  -0.4033
  N  N164  1  0.342000  0.877400  0.302200  1.0  -0.2947
  N  N165  1  0.258800  0.298000  0.309800  1.0  -0.3972
  N  N166  1  0.136000  0.307000  0.206600  1.0  -0.4251
  N  N167  1  0.760400  0.393000  0.305300  1.0  -0.4043
  N  N168  1  0.658000  0.377400  0.197800  1.0  -0.2943
  N  N169  1  0.029000  0.310300  0.937800  1.0  -0.5734
  N  N170  1  0.248000  0.415100  0.857200  1.0  -0.5789
  N  N171  1  0.971000  0.810300  0.562200  1.0  -0.5747
  N  N172  1  0.752000  0.915100  0.642800  1.0  -0.5749
  N  N173  1  0.971000  0.689700  0.062200  1.0  -0.5747
  N  N174  1  0.752000  0.584900  0.142800  1.0  -0.5758
  N  N175  1  0.029000  0.189700  0.437800  1.0  -0.5724
  N  N176  1  0.248000  0.084900  0.357200  1.0  -0.5792
  O  O177  1  0.773600  0.450000  0.668300  1.0  -0.8306
  O  O178  1  0.822600  0.342600  0.744700  1.0  -0.8222
  O  O179  1  0.601000  0.384700  0.729300  1.0  -0.838
  O  O180  1  0.757000  0.456400  0.796400  1.0  -0.8758
  O  O181  1  0.140200  0.341500  0.762500  1.0  -0.5645
  O  O182  1  0.819300  0.218600  0.871200  1.0  -0.7543
  O  O183  1  0.855000  0.205000  0.636300  1.0  -0.6021
  O  O184  1  0.466000  0.277100  0.613400  1.0  -0.5577
  O  O185  1  0.433500  0.291900  0.845900  1.0  -0.6691
  O  O186  1  0.339100  0.484400  0.708700  1.0  -0.5705
  O  O187  1  0.607500  0.613000  0.827100  1.0  -0.5978
  O  O188  1  0.020000  0.541800  0.856400  1.0  -0.6103
  O  O189  1  0.706800  0.416900  0.962300  1.0  -0.5648
  O  O190  1  0.693900  0.484300  0.576700  1.0  -0.699
  O  O191  1  0.839600  0.550800  0.643000  1.0  -0.745
  O  O192  1  0.549000  0.494600  0.660600  1.0  -0.7667
  O  O193  1  0.683000  0.563500  0.726000  1.0  -0.8316
  O  O194  1  0.901000  0.447200  0.591200  1.0  -0.7027
  O  O195  1  0.621000  0.369100  0.601800  1.0  -0.7712
  O  O196  1  0.828000  0.332000  0.615700  1.0  -0.7591
  O  O197  1  0.004300  0.415400  0.695300  1.0  -0.7777
  O  O198  1  0.943800  0.518700  0.742500  1.0  -0.7793
  O  O199  1  0.959000  0.300200  0.814200  1.0  -0.6784
  O  O200  1  0.968000  0.296500  0.696000  1.0  -0.6923
  O  O201  1  0.982600  0.422300  0.809600  1.0  -0.7031
  O  O202  1  0.814400  0.230300  0.748900  1.0  -0.7019
  O  O203  1  0.656300  0.285000  0.809800  1.0  -0.8235
  O  O204  1  0.793000  0.347700  0.876400  1.0  -0.7972
  O  O205  1  0.671600  0.273400  0.670700  1.0  -0.837
  O  O206  1  0.497000  0.286800  0.729100  1.0  -0.695
  O  O207  1  0.444000  0.388900  0.660300  1.0  -0.7276
  O  O208  1  0.427000  0.397500  0.777900  1.0  -0.8316
  O  O209  1  0.589000  0.387600  0.857200  1.0  -0.8337
  O  O210  1  0.531000  0.505200  0.778900  1.0  -0.809
  O  O211  1  0.807200  0.560400  0.823300  1.0  -0.6865
  O  O212  1  0.648900  0.496300  0.874800  1.0  -0.7137
  O  O213  1  0.851000  0.460200  0.886200  1.0  -0.7886
  O  O214  1  0.514900  0.172300  0.849800  1.0  -0.6697
  O  O215  1  0.654700  0.136000  0.904200  1.0  -0.5739
  O  O216  1  0.769400  0.390300  0.513800  1.0  -0.7597
  O  O217  1  0.917500  0.206700  0.984100  1.0  -0.6214
  O  O218  1  0.001000  0.071000  0.985800  1.0  -0.2387
  O  O219  1  0.764000  0.012500  0.928700  1.0  -0.2302
  O  O220  1  0.050100  0.527000  0.638000  1.0  -0.7301
  O  O221  1  0.009000  0.152400  0.867100  1.0  -0.7152
  O  O222  1  0.487000  0.286900  0.971100  1.0  -0.2412
  O  O223  1  0.248000  0.304700  0.920600  1.0  -0.7551
  O  O224  1  0.303000  0.209600  0.018700  1.0  -0.2583
  O  O225  1  0.502000  0.150300  0.979400  1.0  -0.232
  O  O226  1  0.166000  0.179800  0.913800  1.0  -0.58
  O  O227  1  0.651100  0.597900  0.610400  1.0  -0.7544
  O  O228  1  0.226400  0.950000  0.831700  1.0  -0.8319
  O  O229  1  0.177400  0.842600  0.755300  1.0  -0.8223
  O  O230  1  0.399000  0.884700  0.770700  1.0  -0.8387
  O  O231  1  0.243000  0.956400  0.703600  1.0  -0.8736
  O  O232  1  0.859800  0.841500  0.737500  1.0  -0.564
  O  O233  1  0.180700  0.718600  0.628800  1.0  -0.7547
  O  O234  1  0.145000  0.705000  0.863700  1.0  -0.6009
  O  O235  1  0.534000  0.777100  0.886600  1.0  -0.5586
  O  O236  1  0.566500  0.791900  0.654100  1.0  -0.6692
  O  O237  1  0.660900  0.984400  0.791300  1.0  -0.5694
  O  O238  1  0.392500  0.113000  0.672900  1.0  -0.6025
  O  O239  1  0.980000  0.041800  0.643600  1.0  -0.6153
  O  O240  1  0.293200  0.916900  0.537700  1.0  -0.5666
  O  O241  1  0.306100  0.984300  0.923300  1.0  -0.6991
  O  O242  1  0.160400  0.050800  0.857000  1.0  -0.7426
  O  O243  1  0.451000  0.994600  0.839400  1.0  -0.7655
  O  O244  1  0.317000  0.063500  0.774000  1.0  -0.8313
  O  O245  1  0.099000  0.947200  0.908800  1.0  -0.703
  O  O246  1  0.379000  0.869100  0.898200  1.0  -0.7719
  O  O247  1  0.172000  0.832000  0.884300  1.0  -0.7623
  O  O248  1  0.995700  0.915400  0.804700  1.0  -0.7816
  O  O249  1  0.056200  0.018700  0.757500  1.0  -0.7802
  O  O250  1  0.041000  0.800200  0.685800  1.0  -0.6782
  O  O251  1  0.032000  0.796500  0.804000  1.0  -0.6897
  O  O252  1  0.017400  0.922300  0.690400  1.0  -0.7039
  O  O253  1  0.185600  0.730300  0.751100  1.0  -0.7029
  O  O254  1  0.343700  0.785000  0.690200  1.0  -0.8228
  O  O255  1  0.207000  0.847700  0.623600  1.0  -0.7971
  O  O256  1  0.328400  0.773400  0.829300  1.0  -0.8366
  O  O257  1  0.503000  0.786800  0.770900  1.0  -0.6937
  O  O258  1  0.556000  0.888900  0.839700  1.0  -0.7286
  O  O259  1  0.573000  0.897500  0.722100  1.0  -0.8302
  O  O260  1  0.411000  0.887600  0.642800  1.0  -0.8332
  O  O261  1  0.469000  0.005200  0.721100  1.0  -0.8102
  O  O262  1  0.192800  0.060400  0.676700  1.0  -0.6915
  O  O263  1  0.351100  0.996300  0.625200  1.0  -0.7163
  O  O264  1  0.149000  0.960200  0.613800  1.0  -0.7921
  O  O265  1  0.485100  0.672300  0.650200  1.0  -0.6714
  O  O266  1  0.345300  0.636000  0.595800  1.0  -0.5741
  O  O267  1  0.230600  0.890300  0.986200  1.0  -0.7581
  O  O268  1  0.082500  0.706700  0.515900  1.0  -0.6239
  O  O269  1  0.999000  0.571000  0.514200  1.0  -0.2398
  O  O270  1  0.236000  0.512500  0.571300  1.0  -0.2301
  O  O271  1  0.949900  0.027000  0.862000  1.0  -0.7314
  O  O272  1  0.991000  0.652400  0.632900  1.0  -0.7166
  O  O273  1  0.513000  0.786900  0.528900  1.0  -0.2431
  O  O274  1  0.752000  0.804700  0.579400  1.0  -0.7546
  O  O275  1  0.697000  0.709600  0.481300  1.0  -0.2578
  O  O276  1  0.498000  0.650300  0.520600  1.0  -0.2299
  O  O277  1  0.834000  0.679800  0.586200  1.0  -0.5827
  O  O278  1  0.348900  0.097900  0.889600  1.0  -0.7526
  O  O279  1  0.226400  0.550000  0.331700  1.0  -0.8313
  O  O280  1  0.177400  0.657400  0.255300  1.0  -0.8237
  O  O281  1  0.399000  0.615300  0.270700  1.0  -0.8388
  O  O282  1  0.243000  0.543600  0.203600  1.0  -0.8737
  O  O283  1  0.859800  0.658500  0.237500  1.0  -0.5632
  O  O284  1  0.180700  0.781400  0.128800  1.0  -0.754
  O  O285  1  0.145000  0.795000  0.363700  1.0  -0.6005
  O  O286  1  0.534000  0.722900  0.386600  1.0  -0.5575
  O  O287  1  0.566500  0.708100  0.154100  1.0  -0.6694
  O  O288  1  0.660900  0.515600  0.291300  1.0  -0.5688
  O  O289  1  0.392500  0.387000  0.172900  1.0  -0.6028
  O  O290  1  0.980000  0.458200  0.143600  1.0  -0.6138
  O  O291  1  0.293200  0.583100  0.037700  1.0  -0.5663
  O  O292  1  0.306100  0.515700  0.423300  1.0  -0.6988
  O  O293  1  0.160400  0.449200  0.357000  1.0  -0.7435
  O  O294  1  0.451000  0.505400  0.339400  1.0  -0.7653
  O  O295  1  0.317000  0.436500  0.274000  1.0  -0.8306
  O  O296  1  0.099000  0.552800  0.408800  1.0  -0.7023
  O  O297  1  0.379000  0.630900  0.398200  1.0  -0.7719
  O  O298  1  0.172000  0.668000  0.384300  1.0  -0.7629
  O  O299  1  0.995700  0.584600  0.304700  1.0  -0.7828
  O  O300  1  0.056200  0.481300  0.257500  1.0  -0.7803
  O  O301  1  0.041000  0.699800  0.185800  1.0  -0.6778
  O  O302  1  0.032000  0.703500  0.304000  1.0  -0.6899
  O  O303  1  0.017400  0.577700  0.190400  1.0  -0.7031
  O  O304  1  0.185600  0.769700  0.251100  1.0  -0.7022
  O  O305  1  0.343700  0.715000  0.190200  1.0  -0.8224
  O  O306  1  0.207000  0.652300  0.123600  1.0  -0.7961
  O  O307  1  0.328400  0.726600  0.329300  1.0  -0.8375
  O  O308  1  0.503000  0.713200  0.270900  1.0  -0.6935
  O  O309  1  0.556000  0.611100  0.339700  1.0  -0.7283
  O  O310  1  0.573000  0.602500  0.222100  1.0  -0.8298
  O  O311  1  0.411000  0.612400  0.142800  1.0  -0.8325
  O  O312  1  0.469000  0.494800  0.221100  1.0  -0.81
  O  O313  1  0.192800  0.439600  0.176700  1.0  -0.6934
  O  O314  1  0.351100  0.503700  0.125200  1.0  -0.7165
  O  O315  1  0.149000  0.539800  0.113800  1.0  -0.7903
  O  O316  1  0.485100  0.827700  0.150200  1.0  -0.6716
  O  O317  1  0.345300  0.864000  0.095800  1.0  -0.5733
  O  O318  1  0.230600  0.609700  0.486200  1.0  -0.758
  O  O319  1  0.082500  0.793300  0.015900  1.0  -0.6229
  O  O320  1  0.999000  0.929000  0.014200  1.0  -0.2395
  O  O321  1  0.236000  0.987500  0.071300  1.0  -0.2301
  O  O322  1  0.949900  0.473000  0.362000  1.0  -0.7315
  O  O323  1  0.991000  0.847600  0.132900  1.0  -0.7177
  O  O324  1  0.513000  0.713100  0.028900  1.0  -0.2428
  O  O325  1  0.752000  0.695300  0.079400  1.0  -0.7543
  O  O326  1  0.697000  0.790400  0.981300  1.0  -0.2576
  O  O327  1  0.498000  0.849700  0.020600  1.0  -0.2313
  O  O328  1  0.834000  0.820200  0.086200  1.0  -0.5825
  O  O329  1  0.348900  0.402100  0.389600  1.0  -0.7526
  O  O330  1  0.773600  0.050000  0.168300  1.0  -0.83
  O  O331  1  0.822600  0.157400  0.244700  1.0  -0.8229
  O  O332  1  0.601000  0.115300  0.229300  1.0  -0.8385
  O  O333  1  0.757000  0.043600  0.296400  1.0  -0.8758
  O  O334  1  0.140200  0.158500  0.262500  1.0  -0.5634
  O  O335  1  0.819300  0.281400  0.371200  1.0  -0.7543
  O  O336  1  0.855000  0.295000  0.136300  1.0  -0.6011
  O  O337  1  0.466000  0.222900  0.113400  1.0  -0.5574
  O  O338  1  0.433500  0.208100  0.345900  1.0  -0.669
  O  O339  1  0.339100  0.015600  0.208700  1.0  -0.5698
  O  O340  1  0.607500  0.887000  0.327100  1.0  -0.5979
  O  O341  1  0.020000  0.958200  0.356400  1.0  -0.6112
  O  O342  1  0.706800  0.083100  0.462300  1.0  -0.565
  O  O343  1  0.693900  0.015700  0.076700  1.0  -0.6987
  O  O344  1  0.839600  0.949200  0.143000  1.0  -0.746
  O  O345  1  0.549000  0.005400  0.160600  1.0  -0.7671
  O  O346  1  0.683000  0.936500  0.226000  1.0  -0.8309
  O  O347  1  0.901000  0.052800  0.091200  1.0  -0.7033
  O  O348  1  0.621000  0.130900  0.101800  1.0  -0.7713
  O  O349  1  0.828000  0.168000  0.115700  1.0  -0.7597
  O  O350  1  0.004300  0.084600  0.195300  1.0  -0.7794
  O  O351  1  0.943800  0.981300  0.242500  1.0  -0.7796
  O  O352  1  0.959000  0.199800  0.314200  1.0  -0.678
  O  O353  1  0.968000  0.203500  0.196000  1.0  -0.6923
  O  O354  1  0.982600  0.077700  0.309600  1.0  -0.7022
  O  O355  1  0.814400  0.269700  0.248900  1.0  -0.701
  O  O356  1  0.656300  0.215000  0.309800  1.0  -0.8233
  O  O357  1  0.793000  0.152300  0.376400  1.0  -0.7966
  O  O358  1  0.671600  0.226600  0.170700  1.0  -0.8382
  O  O359  1  0.497000  0.213200  0.229100  1.0  -0.6953
  O  O360  1  0.444000  0.111100  0.160300  1.0  -0.7278
  O  O361  1  0.427000  0.102500  0.277900  1.0  -0.8315
  O  O362  1  0.589000  0.112400  0.357200  1.0  -0.8327
  O  O363  1  0.531000  0.994800  0.278900  1.0  -0.809
  O  O364  1  0.807200  0.939600  0.323300  1.0  -0.6891
  O  O365  1  0.648900  0.003700  0.374800  1.0  -0.716
  O  O366  1  0.851000  0.039800  0.386200  1.0  -0.7894
  O  O367  1  0.514900  0.327700  0.349800  1.0  -0.67
  O  O368  1  0.654700  0.364000  0.404200  1.0  -0.5741
  O  O369  1  0.769400  0.109700  0.013800  1.0  -0.7593
  O  O370  1  0.917500  0.293300  0.484100  1.0  -0.6218
  O  O371  1  0.001000  0.429000  0.485800  1.0  -0.2385
  O  O372  1  0.764000  0.487500  0.428700  1.0  -0.2297
  O  O373  1  0.050100  0.973000  0.138000  1.0  -0.7301
  O  O374  1  0.009000  0.347600  0.367100  1.0  -0.7165
  O  O375  1  0.487000  0.213100  0.471100  1.0  -0.2415
  O  O376  1  0.248000  0.195300  0.420600  1.0  -0.7552
  O  O377  1  0.303000  0.290400  0.518700  1.0  -0.258
  O  O378  1  0.502000  0.349700  0.479400  1.0  -0.2296
  O  O379  1  0.166000  0.320200  0.413800  1.0  -0.5805
  O  O380  1  0.651100  0.902100  0.110400  1.0  -0.7547
