# generated using pymatgen
data_Nd2H14W12C10(N2O17)3
_symmetry_space_group_name_H-M   'P 1'
_cell_length_a   12.24900000
_cell_length_b   21.73900000
_cell_length_c   22.72200000
_cell_angle_alpha   90.00000000
_cell_angle_beta   91.67000000
_cell_angle_gamma   90.00000000
_symmetry_Int_Tables_number   1
_chemical_formula_structural   Nd2H14W12C10(N2O17)3
_chemical_formula_sum   'Nd8 H56 W48 C40 N24 O204'
_cell_volume   6047.86724695
_cell_formula_units_Z   4
loop_
 _symmetry_equiv_pos_site_id
 _symmetry_equiv_pos_as_xyz
  1  'x, y, z'
loop_
 _atom_site_type_symbol
 _atom_site_label
 _atom_site_symmetry_multiplicity
 _atom_site_fract_x
 _atom_site_fract_y
 _atom_site_fract_z
 _atom_site_occupancy
 _atom_site_charge
  Nd  Nd1  1  0.132550  0.710810  0.586480  1.0  2.2009
  Nd  Nd2  1  0.647580  0.615660  0.584350  1.0  2.2588
  Nd  Nd3  1  0.867450  0.210810  0.913520  1.0  2.1996
  Nd  Nd4  1  0.352420  0.115660  0.915650  1.0  2.2596
  Nd  Nd5  1  0.867450  0.289190  0.413520  1.0  2.2005
  Nd  Nd6  1  0.352420  0.384340  0.415650  1.0  2.26
  Nd  Nd7  1  0.132550  0.789190  0.086480  1.0  2.2013
  Nd  Nd8  1  0.647580  0.884340  0.084350  1.0  2.2591
  H  H9  1  0.486400  0.666200  0.738300  1.0  0.1141
  H  H10  1  0.225100  0.712000  0.831400  1.0  0.1012
  H  H11  1  0.129500  0.729200  0.746600  1.0  0.0914
  H  H12  1  0.956200  0.655900  0.759100  1.0  0.1046
  H  H13  1  0.702000  0.578400  0.831300  1.0  0.1098
  H  H14  1  0.612500  0.575300  0.740000  1.0  0.0891
  H  H15  1  0.513600  0.166200  0.761700  1.0  0.1142
  H  H16  1  0.774900  0.212000  0.668600  1.0  0.1016
  H  H17  1  0.870500  0.229200  0.753400  1.0  0.0915
  H  H18  1  0.043800  0.155900  0.740900  1.0  0.1048
  H  H19  1  0.298000  0.078400  0.668700  1.0  0.1102
  H  H20  1  0.387500  0.075300  0.760000  1.0  0.089
  H  H21  1  0.513600  0.333800  0.261700  1.0  0.1141
  H  H22  1  0.774900  0.288000  0.168600  1.0  0.1019
  H  H23  1  0.870500  0.270800  0.253400  1.0  0.0914
  H  H24  1  0.043800  0.344100  0.240900  1.0  0.105
  H  H25  1  0.298000  0.421600  0.168700  1.0  0.1099
  H  H26  1  0.387500  0.424700  0.260000  1.0  0.0888
  H  H27  1  0.486400  0.833800  0.238300  1.0  0.1138
  H  H28  1  0.225100  0.788000  0.331400  1.0  0.1013
  H  H29  1  0.129500  0.770800  0.246600  1.0  0.0911
  H  H30  1  0.956200  0.844100  0.259100  1.0  0.1049
  H  H31  1  0.702000  0.921600  0.331300  1.0  0.1101
  H  H32  1  0.612500  0.924700  0.240000  1.0  0.0892
  H  H33  1  0.832700  0.666400  0.909400  1.0  0.1446
  H  H34  1  0.958600  0.669300  0.923400  1.0  0.1994
  H  H35  1  0.912300  0.622700  0.876300  1.0  0.1449
  H  H36  1  0.890700  0.612200  0.943200  1.0  0.1867
  H  H37  1  0.273100  0.607300  0.530400  1.0  0.1165
  H  H38  1  0.378000  0.588900  0.496700  1.0  0.1817
  H  H39  1  0.262300  0.570200  0.471400  1.0  0.1657
  H  H40  1  0.310100  0.538300  0.528400  1.0  0.1107
  H  H41  1  0.167300  0.166400  0.590600  1.0  0.1422
  H  H42  1  0.041400  0.169300  0.576600  1.0  0.1981
  H  H43  1  0.087700  0.122700  0.623700  1.0  0.1438
  H  H44  1  0.109300  0.112200  0.556800  1.0  0.1852
  H  H45  1  0.726900  0.107300  0.969600  1.0  0.115
  H  H46  1  0.622000  0.088900  0.003300  1.0  0.1814
  H  H47  1  0.737700  0.070200  0.028600  1.0  0.1645
  H  H48  1  0.689900  0.038300  0.971600  1.0  0.1116
  H  H49  1  0.167300  0.333600  0.090600  1.0  0.1414
  H  H50  1  0.041400  0.330700  0.076600  1.0  0.1962
  H  H51  1  0.087700  0.377300  0.123700  1.0  0.1442
  H  H52  1  0.109300  0.387800  0.056800  1.0  0.1873
  H  H53  1  0.726900  0.392700  0.469600  1.0  0.1141
  H  H54  1  0.622000  0.411100  0.503300  1.0  0.1818
  H  H55  1  0.737700  0.429800  0.528600  1.0  0.1651
  H  H56  1  0.689900  0.461700  0.471600  1.0  0.1106
  H  H57  1  0.832700  0.833600  0.409400  1.0  0.1437
  H  H58  1  0.958600  0.830700  0.423400  1.0  0.1981
  H  H59  1  0.912300  0.877300  0.376300  1.0  0.1453
  H  H60  1  0.890700  0.887800  0.443200  1.0  0.1882
  H  H61  1  0.273100  0.892700  0.030400  1.0  0.1146
  H  H62  1  0.378000  0.911100  0.996700  1.0  0.1816
  H  H63  1  0.262300  0.929800  0.971400  1.0  0.1649
  H  H64  1  0.310100  0.961700  0.028400  1.0  0.1095
  W  W65  1  0.816910  0.034630  0.852030  1.0  2.1836
  W  W66  1  0.672950  0.772510  0.825250  1.0  2.4447
  W  W67  1  0.494570  0.857010  0.744900  1.0  2.4183
  W  W68  1  0.035540  0.953780  0.781510  1.0  2.5753
  W  W69  1  0.778910  0.921260  0.609170  1.0  2.4026
  W  W70  1  0.844460  0.044620  0.693700  1.0  2.3774
  W  W71  1  0.954500  0.820240  0.842420  1.0  2.3432
  W  W72  1  0.581000  0.999190  0.678320  1.0  2.4828
  W  W73  1  0.974830  0.832790  0.699190  1.0  2.4861
  W  W74  1  0.739130  0.908480  0.913740  1.0  2.0242
  W  W75  1  0.692180  0.780320  0.682150  1.0  2.3782
  W  W76  1  0.562300  0.989570  0.839020  1.0  2.2149
  W  W77  1  0.183090  0.534630  0.647970  1.0  2.1883
  W  W78  1  0.327050  0.272510  0.674750  1.0  2.4447
  W  W79  1  0.505430  0.357010  0.755100  1.0  2.417
  W  W80  1  0.964460  0.453780  0.718490  1.0  2.574
  W  W81  1  0.221090  0.421260  0.890830  1.0  2.3974
  W  W82  1  0.155540  0.544620  0.806300  1.0  2.375
  W  W83  1  0.045500  0.320240  0.657580  1.0  2.344
  W  W84  1  0.419000  0.499190  0.821680  1.0  2.481
  W  W85  1  0.025170  0.332790  0.800810  1.0  2.4886
  W  W86  1  0.260870  0.408480  0.586260  1.0  2.0216
  W  W87  1  0.307820  0.280320  0.817850  1.0  2.377
  W  W88  1  0.437700  0.489570  0.660980  1.0  2.2179
  W  W89  1  0.183090  0.965370  0.147970  1.0  2.1877
  W  W90  1  0.327050  0.227490  0.174750  1.0  2.4445
  W  W91  1  0.505430  0.142990  0.255100  1.0  2.4177
  W  W92  1  0.964460  0.046220  0.218490  1.0  2.5733
  W  W93  1  0.221090  0.078740  0.390830  1.0  2.3983
  W  W94  1  0.155540  0.955380  0.306300  1.0  2.3751
  W  W95  1  0.045500  0.179760  0.157580  1.0  2.3451
  W  W96  1  0.419000  0.000810  0.321680  1.0  2.4804
  W  W97  1  0.025170  0.167210  0.300810  1.0  2.4898
  W  W98  1  0.260870  0.091520  0.086260  1.0  2.0235
  W  W99  1  0.307820  0.219680  0.317850  1.0  2.3781
  W  W100  1  0.437700  0.010430  0.160980  1.0  2.2174
  W  W101  1  0.816910  0.465370  0.352030  1.0  2.183
  W  W102  1  0.672950  0.727490  0.325250  1.0  2.4459
  W  W103  1  0.494570  0.642990  0.244900  1.0  2.4191
  W  W104  1  0.035540  0.546220  0.281510  1.0  2.5745
  W  W105  1  0.778910  0.578740  0.109170  1.0  2.4036
  W  W106  1  0.844460  0.455380  0.193700  1.0  2.3779
  W  W107  1  0.954500  0.679760  0.342420  1.0  2.3444
  W  W108  1  0.581000  0.500810  0.178320  1.0  2.4827
  W  W109  1  0.974830  0.667210  0.199190  1.0  2.4873
  W  W110  1  0.739130  0.591520  0.413740  1.0  2.0257
  W  W111  1  0.692180  0.719680  0.182150  1.0  2.379
  W  W112  1  0.562300  0.510430  0.339020  1.0  2.2144
  C  C113  1  0.392000  0.672300  0.628000  1.0  0.6518
  C  C114  1  0.350000  0.686400  0.688500  1.0  0.0149
  C  C115  1  0.412000  0.679200  0.740400  1.0  0.1564
  C  C116  1  0.260000  0.708500  0.794200  1.0  0.1037
  C  C117  1  0.202000  0.713500  0.743000  1.0  0.1463
  C  C118  1  0.895500  0.649000  0.644900  1.0  0.6364
  C  C119  1  0.836700  0.630600  0.700400  1.0  0.1081
  C  C120  1  0.885000  0.637500  0.756200  1.0  0.1489
  C  C121  1  0.736000  0.595400  0.797300  1.0  0.1022
  C  C122  1  0.686600  0.589600  0.742800  1.0  0.1452
  C  C123  1  0.608000  0.172300  0.872000  1.0  0.6489
  C  C124  1  0.650000  0.186400  0.811500  1.0  0.0151
  C  C125  1  0.588000  0.179200  0.759600  1.0  0.1566
  C  C126  1  0.740000  0.208500  0.705800  1.0  0.1045
  C  C127  1  0.798000  0.213500  0.757000  1.0  0.1463
  C  C128  1  0.104500  0.149000  0.855100  1.0  0.6387
  C  C129  1  0.163300  0.130600  0.799600  1.0  0.1062
  C  C130  1  0.115000  0.137500  0.743800  1.0  0.1503
  C  C131  1  0.264000  0.095400  0.702700  1.0  0.1004
  C  C132  1  0.313400  0.089600  0.757200  1.0  0.145
  C  C133  1  0.608000  0.327700  0.372000  1.0  0.6523
  C  C134  1  0.650000  0.313600  0.311500  1.0  0.0158
  C  C135  1  0.588000  0.320800  0.259600  1.0  0.1566
  C  C136  1  0.740000  0.291500  0.205800  1.0  0.1052
  C  C137  1  0.798000  0.286500  0.257000  1.0  0.146
  C  C138  1  0.104500  0.351000  0.355100  1.0  0.6383
  C  C139  1  0.163300  0.369400  0.299600  1.0  0.1064
  C  C140  1  0.115000  0.362500  0.243800  1.0  0.1505
  C  C141  1  0.264000  0.404600  0.202700  1.0  0.1
  C  C142  1  0.313400  0.410400  0.257200  1.0  0.1438
  C  C143  1  0.392000  0.827700  0.128000  1.0  0.6487
  C  C144  1  0.350000  0.813600  0.188500  1.0  0.015
  C  C145  1  0.412000  0.820800  0.240400  1.0  0.1565
  C  C146  1  0.260000  0.791500  0.294200  1.0  0.1049
  C  C147  1  0.202000  0.786500  0.243000  1.0  0.1462
  C  C148  1  0.895500  0.851000  0.144900  1.0  0.6363
  C  C149  1  0.836700  0.869400  0.200400  1.0  0.1083
  C  C150  1  0.885000  0.862500  0.256200  1.0  0.1492
  C  C151  1  0.736000  0.904600  0.297300  1.0  0.0999
  C  C152  1  0.686600  0.910400  0.242800  1.0  0.1439
  N  N153  1  0.734900  0.608000  0.693200  1.0  -0.4735
  N  N154  1  0.836900  0.621300  0.802500  1.0  -0.306
  N  N155  1  0.242800  0.702000  0.689600  1.0  -0.4623
  N  N156  1  0.367200  0.690900  0.791400  1.0  -0.4301
  N  N157  1  0.265100  0.108000  0.806800  1.0  -0.472
  N  N158  1  0.163100  0.121300  0.697500  1.0  -0.3073
  N  N159  1  0.757200  0.202000  0.810400  1.0  -0.4599
  N  N160  1  0.632800  0.190900  0.708600  1.0  -0.4318
  N  N161  1  0.265100  0.392000  0.306800  1.0  -0.4721
  N  N162  1  0.163100  0.378700  0.197500  1.0  -0.3067
  N  N163  1  0.757200  0.298000  0.310400  1.0  -0.459
  N  N164  1  0.632800  0.309100  0.208600  1.0  -0.4312
  N  N165  1  0.734900  0.892000  0.193200  1.0  -0.4737
  N  N166  1  0.836900  0.878700  0.302500  1.0  -0.3063
  N  N167  1  0.242800  0.798000  0.189600  1.0  -0.4627
  N  N168  1  0.367200  0.809100  0.291400  1.0  -0.4301
  N  N169  1  0.899000  0.642600  0.913100  1.0  -0.6272
  N  N170  1  0.306000  0.576000  0.506700  1.0  -0.6378
  N  N171  1  0.101000  0.142600  0.586900  1.0  -0.6277
  N  N172  1  0.694000  0.076000  0.993300  1.0  -0.6398
  N  N173  1  0.101000  0.357400  0.086900  1.0  -0.6274
  N  N174  1  0.694000  0.424000  0.493300  1.0  -0.6396
  N  N175  1  0.899000  0.857400  0.413100  1.0  -0.6277
  N  N176  1  0.306000  0.924000  0.006700  1.0  -0.6381
  O  O177  1  0.073300  0.896100  0.721800  1.0  -0.6959
  O  O178  1  0.797200  0.914900  0.537200  1.0  -0.6084
  O  O179  1  0.062200  0.791800  0.655000  1.0  -0.7667
  O  O180  1  0.358600  0.844300  0.736600  1.0  -0.5932
  O  O181  1  0.451100  0.028900  0.861600  1.0  -0.7338
  O  O182  1  0.732000  0.890900  0.986700  1.0  -0.7591
  O  O183  1  0.162600  0.985100  0.791000  1.0  -0.5668
  O  O184  1  0.479100  0.039500  0.643300  1.0  -0.6371
  O  O185  1  0.680500  0.719400  0.631400  1.0  -0.7628
  O  O186  1  0.669800  0.835100  0.883300  1.0  -0.7831
  O  O187  1  0.950900  0.996900  0.836200  1.0  -0.7656
  O  O188  1  0.677100  0.842900  0.755000  1.0  -0.8016
  O  O189  1  0.845800  0.784400  0.693700  1.0  -0.7822
  O  O190  1  0.031200  0.777000  0.888900  1.0  -0.5848
  O  O191  1  0.812500  0.060700  0.773900  1.0  -0.7592
  O  O192  1  0.853200  0.999100  0.622600  1.0  -0.7035
  O  O193  1  0.728100  0.952400  0.831600  1.0  -0.7886
  O  O194  1  0.876800  0.870600  0.896000  1.0  -0.7277
  O  O195  1  0.969000  0.002000  0.722900  1.0  -0.789
  O  O196  1  0.744800  0.956000  0.704000  1.0  -0.9114
  O  O197  1  0.908700  0.885000  0.643900  1.0  -0.7678
  O  O198  1  0.593100  0.947700  0.911700  1.0  -0.7074
  O  O199  1  0.560000  0.018700  0.757600  1.0  -0.7701
  O  O200  1  0.706400  0.847500  0.629100  1.0  -0.7907
  O  O201  1  0.525100  0.792400  0.805200  1.0  -0.6845
  O  O202  1  0.006800  0.789800  0.770700  1.0  -0.7797
  O  O203  1  0.681600  0.729700  0.750000  1.0  -0.722
  O  O204  1  0.825100  0.772600  0.832400  1.0  -0.7665
  O  O205  1  0.644100  0.962700  0.609700  1.0  -0.7045
  O  O206  1  0.061000  0.888700  0.840600  1.0  -0.7011
  O  O207  1  0.852600  0.100400  0.889400  1.0  -0.7101
  O  O208  1  0.898800  0.882800  0.772100  1.0  -0.8656
  O  O209  1  0.808300  0.987500  0.925900  1.0  -0.6691
  O  O210  1  0.541100  0.800400  0.685700  1.0  -0.7266
  O  O211  1  0.519800  0.921800  0.691900  1.0  -0.7903
  O  O212  1  0.499500  0.916200  0.807000  1.0  -0.7619
  O  O213  1  0.663700  0.054700  0.857900  1.0  -0.7282
  O  O214  1  0.693000  0.061200  0.674600  1.0  -0.7165
  O  O215  1  0.898000  0.114000  0.671900  1.0  -0.6041
  O  O216  1  0.643200  0.707800  0.865300  1.0  -0.5954
  O  O217  1  0.010000  0.782600  0.532000  1.0  -0.2563
  O  O218  1  0.198700  0.707200  0.483800  1.0  -0.2594
  O  O219  1  0.001900  0.650300  0.519300  1.0  -0.222
  O  O220  1  0.249200  0.804600  0.579800  1.0  -0.2403
  O  O221  1  0.987000  0.672400  0.650000  1.0  -0.6665
  O  O222  1  0.330200  0.680700  0.584800  1.0  -0.6137
  O  O223  1  0.488300  0.655800  0.628200  1.0  -0.6747
  O  O224  1  0.844300  0.637600  0.596000  1.0  -0.6527
  O  O225  1  0.510400  0.569400  0.516500  1.0  -0.689
  O  O226  1  0.587300  0.704400  0.516700  1.0  -0.2227
  O  O227  1  0.740500  0.515400  0.578500  1.0  -0.3503
  O  O228  1  0.926700  0.396100  0.778200  1.0  -0.6943
  O  O229  1  0.202800  0.414900  0.962800  1.0  -0.6045
  O  O230  1  0.937800  0.291800  0.845000  1.0  -0.7685
  O  O231  1  0.641400  0.344300  0.763400  1.0  -0.5937
  O  O232  1  0.548900  0.528900  0.638400  1.0  -0.7335
  O  O233  1  0.268000  0.390900  0.513300  1.0  -0.76
  O  O234  1  0.837400  0.485100  0.709000  1.0  -0.5661
  O  O235  1  0.520900  0.539500  0.856700  1.0  -0.6315
  O  O236  1  0.319500  0.219400  0.868600  1.0  -0.761
  O  O237  1  0.330200  0.335100  0.616700  1.0  -0.7809
  O  O238  1  0.049100  0.496900  0.663800  1.0  -0.7658
  O  O239  1  0.322900  0.342900  0.745000  1.0  -0.8021
  O  O240  1  0.154200  0.284400  0.806300  1.0  -0.7799
  O  O241  1  0.968800  0.277000  0.611100  1.0  -0.5859
  O  O242  1  0.187500  0.560700  0.726100  1.0  -0.7602
  O  O243  1  0.146800  0.499100  0.877400  1.0  -0.697
  O  O244  1  0.271900  0.452400  0.668400  1.0  -0.7879
  O  O245  1  0.123200  0.370600  0.604000  1.0  -0.7293
  O  O246  1  0.031000  0.502000  0.777100  1.0  -0.7896
  O  O247  1  0.255200  0.456000  0.796000  1.0  -0.9148
  O  O248  1  0.091300  0.385000  0.856100  1.0  -0.7682
  O  O249  1  0.406900  0.447700  0.588300  1.0  -0.7064
  O  O250  1  0.440000  0.518700  0.742400  1.0  -0.7706
  O  O251  1  0.293600  0.347500  0.870900  1.0  -0.7877
  O  O252  1  0.474900  0.292400  0.694800  1.0  -0.6839
  O  O253  1  0.993200  0.289800  0.729300  1.0  -0.7807
  O  O254  1  0.318400  0.229700  0.750000  1.0  -0.7214
  O  O255  1  0.174900  0.272600  0.667600  1.0  -0.7667
  O  O256  1  0.355900  0.462700  0.890300  1.0  -0.7025
  O  O257  1  0.939000  0.388700  0.659400  1.0  -0.7023
  O  O258  1  0.147400  0.600400  0.610600  1.0  -0.7098
  O  O259  1  0.101200  0.382800  0.727900  1.0  -0.8663
  O  O260  1  0.191700  0.487500  0.574100  1.0  -0.6693
  O  O261  1  0.458900  0.300400  0.814300  1.0  -0.73
  O  O262  1  0.480200  0.421800  0.808100  1.0  -0.7867
  O  O263  1  0.500500  0.416200  0.693000  1.0  -0.7609
  O  O264  1  0.336300  0.554700  0.642100  1.0  -0.7289
  O  O265  1  0.307000  0.561200  0.825400  1.0  -0.712
  O  O266  1  0.102000  0.614000  0.828100  1.0  -0.6043
  O  O267  1  0.356800  0.207800  0.634700  1.0  -0.5998
  O  O268  1  0.990000  0.282600  0.968000  1.0  -0.254
  O  O269  1  0.801300  0.207200  0.016200  1.0  -0.2609
  O  O270  1  0.998100  0.150300  0.980700  1.0  -0.2215
  O  O271  1  0.750800  0.304600  0.920200  1.0  -0.2405
  O  O272  1  0.013000  0.172400  0.850000  1.0  -0.6683
  O  O273  1  0.669800  0.180700  0.915200  1.0  -0.6115
  O  O274  1  0.511700  0.155800  0.871800  1.0  -0.6757
  O  O275  1  0.155700  0.137600  0.904000  1.0  -0.6535
  O  O276  1  0.489600  0.069400  0.983500  1.0  -0.6881
  O  O277  1  0.412700  0.204400  0.983300  1.0  -0.2226
  O  O278  1  0.259500  0.015400  0.921500  1.0  -0.3491
  O  O279  1  0.926700  0.103900  0.278200  1.0  -0.6942
  O  O280  1  0.202800  0.085100  0.462800  1.0  -0.6047
  O  O281  1  0.937800  0.208200  0.345000  1.0  -0.7688
  O  O282  1  0.641400  0.155700  0.263400  1.0  -0.5937
  O  O283  1  0.548900  0.971100  0.138400  1.0  -0.7338
  O  O284  1  0.268000  0.109100  0.013300  1.0  -0.7621
  O  O285  1  0.837400  0.014900  0.209000  1.0  -0.5664
  O  O286  1  0.520900  0.960500  0.356700  1.0  -0.6322
  O  O287  1  0.319500  0.280600  0.368600  1.0  -0.7602
  O  O288  1  0.330200  0.164900  0.116700  1.0  -0.7814
  O  O289  1  0.049100  0.003100  0.163800  1.0  -0.7659
  O  O290  1  0.322900  0.157100  0.245000  1.0  -0.8025
  O  O291  1  0.154200  0.215600  0.306300  1.0  -0.7804
  O  O292  1  0.968800  0.223000  0.111100  1.0  -0.5876
  O  O293  1  0.187500  0.939300  0.226100  1.0  -0.7604
  O  O294  1  0.146800  0.000900  0.377400  1.0  -0.6969
  O  O295  1  0.271900  0.047600  0.168400  1.0  -0.7865
  O  O296  1  0.123200  0.129400  0.104000  1.0  -0.7292
  O  O297  1  0.031000  0.998000  0.277100  1.0  -0.7897
  O  O298  1  0.255200  0.044000  0.296000  1.0  -0.9143
  O  O299  1  0.091300  0.115000  0.356100  1.0  -0.7684
  O  O300  1  0.406900  0.052300  0.088300  1.0  -0.7061
  O  O301  1  0.440000  0.981300  0.242400  1.0  -0.7706
  O  O302  1  0.293600  0.152500  0.370900  1.0  -0.7869
  O  O303  1  0.474900  0.207600  0.194800  1.0  -0.6834
  O  O304  1  0.993200  0.210200  0.229300  1.0  -0.7809
  O  O305  1  0.318400  0.270300  0.250000  1.0  -0.7213
  O  O306  1  0.174900  0.227400  0.167600  1.0  -0.7674
  O  O307  1  0.355900  0.037300  0.390300  1.0  -0.7019
  O  O308  1  0.939000  0.111300  0.159400  1.0  -0.7025
  O  O309  1  0.147400  0.899600  0.110600  1.0  -0.7101
  O  O310  1  0.101200  0.117200  0.227900  1.0  -0.8666
  O  O311  1  0.191700  0.012500  0.074100  1.0  -0.6684
  O  O312  1  0.458900  0.199600  0.314300  1.0  -0.7293
  O  O313  1  0.480200  0.078200  0.308100  1.0  -0.7868
  O  O314  1  0.500500  0.083800  0.193000  1.0  -0.7606
  O  O315  1  0.336300  0.945300  0.142100  1.0  -0.729
  O  O316  1  0.307000  0.938800  0.325400  1.0  -0.7137
  O  O317  1  0.102000  0.886000  0.328100  1.0  -0.6052
  O  O318  1  0.356800  0.292200  0.134700  1.0  -0.5988
  O  O319  1  0.990000  0.217400  0.468000  1.0  -0.2547
  O  O320  1  0.801300  0.292800  0.516200  1.0  -0.261
  O  O321  1  0.998100  0.349700  0.480700  1.0  -0.2202
  O  O322  1  0.750800  0.195400  0.420200  1.0  -0.2401
  O  O323  1  0.013000  0.327600  0.350000  1.0  -0.668
  O  O324  1  0.669800  0.319300  0.415200  1.0  -0.6131
  O  O325  1  0.511700  0.344200  0.371800  1.0  -0.6763
  O  O326  1  0.155700  0.362400  0.404000  1.0  -0.6536
  O  O327  1  0.489600  0.430600  0.483500  1.0  -0.6874
  O  O328  1  0.412700  0.295600  0.483300  1.0  -0.2219
  O  O329  1  0.259500  0.484600  0.421500  1.0  -0.35
  O  O330  1  0.073300  0.603900  0.221800  1.0  -0.6958
  O  O331  1  0.797200  0.585100  0.037200  1.0  -0.6082
  O  O332  1  0.062200  0.708200  0.155000  1.0  -0.7666
  O  O333  1  0.358600  0.655700  0.236600  1.0  -0.5929
  O  O334  1  0.451100  0.471100  0.361600  1.0  -0.7342
  O  O335  1  0.732000  0.609100  0.486700  1.0  -0.76
  O  O336  1  0.162600  0.514900  0.291000  1.0  -0.5663
  O  O337  1  0.479100  0.460500  0.143300  1.0  -0.6377
  O  O338  1  0.680500  0.780600  0.131400  1.0  -0.7616
  O  O339  1  0.669800  0.664900  0.383300  1.0  -0.7831
  O  O340  1  0.950900  0.503100  0.336200  1.0  -0.7651
  O  O341  1  0.677100  0.657100  0.255000  1.0  -0.802
  O  O342  1  0.845800  0.715600  0.193700  1.0  -0.7822
  O  O343  1  0.031200  0.723000  0.388900  1.0  -0.5861
  O  O344  1  0.812500  0.439300  0.273900  1.0  -0.7597
  O  O345  1  0.853200  0.500900  0.122600  1.0  -0.7032
  O  O346  1  0.728100  0.547600  0.331600  1.0  -0.7875
  O  O347  1  0.876800  0.629400  0.396000  1.0  -0.7276
  O  O348  1  0.969000  0.498000  0.222900  1.0  -0.7895
  O  O349  1  0.744800  0.544000  0.204000  1.0  -0.911
  O  O350  1  0.908700  0.615000  0.143900  1.0  -0.7676
  O  O351  1  0.593100  0.552300  0.411700  1.0  -0.7075
  O  O352  1  0.560000  0.481300  0.257600  1.0  -0.7698
  O  O353  1  0.706400  0.652500  0.129100  1.0  -0.7898
  O  O354  1  0.525100  0.707600  0.305200  1.0  -0.6839
  O  O355  1  0.006800  0.710200  0.270700  1.0  -0.7798
  O  O356  1  0.681600  0.770300  0.250000  1.0  -0.722
  O  O357  1  0.825100  0.727400  0.332400  1.0  -0.7671
  O  O358  1  0.644100  0.537300  0.109700  1.0  -0.7048
  O  O359  1  0.061000  0.611300  0.340600  1.0  -0.7014
  O  O360  1  0.852600  0.399600  0.389400  1.0  -0.7106
  O  O361  1  0.898800  0.617200  0.272100  1.0  -0.8657
  O  O362  1  0.808300  0.512500  0.425900  1.0  -0.6676
  O  O363  1  0.541100  0.699600  0.185700  1.0  -0.7274
  O  O364  1  0.519800  0.578200  0.191900  1.0  -0.79
  O  O365  1  0.499500  0.583800  0.307000  1.0  -0.7616
  O  O366  1  0.663700  0.445300  0.357900  1.0  -0.7285
  O  O367  1  0.693000  0.438800  0.174600  1.0  -0.7173
  O  O368  1  0.898000  0.386000  0.171900  1.0  -0.6049
  O  O369  1  0.643200  0.792200  0.365300  1.0  -0.5941
  O  O370  1  0.010000  0.717400  0.032000  1.0  -0.2569
  O  O371  1  0.198700  0.792800  0.983800  1.0  -0.2593
  O  O372  1  0.001900  0.849700  0.019300  1.0  -0.2229
  O  O373  1  0.249200  0.695400  0.079800  1.0  -0.2398
  O  O374  1  0.987000  0.827600  0.150000  1.0  -0.6665
  O  O375  1  0.330200  0.819300  0.084800  1.0  -0.6144
  O  O376  1  0.488300  0.844200  0.128200  1.0  -0.6759
  O  O377  1  0.844300  0.862400  0.096000  1.0  -0.6525
  O  O378  1  0.510400  0.930600  0.016500  1.0  -0.6886
  O  O379  1  0.587300  0.795600  0.016700  1.0  -0.2219
  O  O380  1  0.740500  0.984600  0.078500  1.0  -0.3507
