# generated using pymatgen
data_Sm2H14W12C10(N2O17)3
_symmetry_space_group_name_H-M   'P 1'
_cell_length_a   12.23200000
_cell_length_b   21.81800000
_cell_length_c   22.78400000
_cell_angle_alpha   90.00000000
_cell_angle_beta   91.40100000
_cell_angle_gamma   90.00000000
_symmetry_Int_Tables_number   1
_chemical_formula_structural   Sm2H14W12C10(N2O17)3
_chemical_formula_sum   'Sm8 H56 W48 C40 N24 O204'
_cell_volume   6078.72555029
_cell_formula_units_Z   4
loop_
 _symmetry_equiv_pos_site_id
 _symmetry_equiv_pos_as_xyz
  1  'x, y, z'
loop_
 _atom_site_type_symbol
 _atom_site_label
 _atom_site_symmetry_multiplicity
 _atom_site_fract_x
 _atom_site_fract_y
 _atom_site_fract_z
 _atom_site_occupancy
 _atom_site_charge
  Sm  Sm1  1  0.867170  0.289970  0.913360  1.0  2.1987
  Sm  Sm2  1  0.352480  0.383800  0.915500  1.0  2.209
  Sm  Sm3  1  0.132830  0.789970  0.586640  1.0  2.1999
  Sm  Sm4  1  0.647520  0.883800  0.584500  1.0  2.2098
  Sm  Sm5  1  0.132830  0.710030  0.086640  1.0  2.1993
  Sm  Sm6  1  0.647520  0.616200  0.084500  1.0  2.2099
  Sm  Sm7  1  0.867170  0.210030  0.413360  1.0  2.1982
  Sm  Sm8  1  0.352480  0.116200  0.415500  1.0  2.209
  H  H9  1  0.380800  0.424500  0.764000  1.0  0.0576
  H  H10  1  0.303900  0.414000  0.666200  1.0  0.0894
  H  H11  1  0.518000  0.337800  0.755000  1.0  0.0807
  H  H12  1  0.775800  0.293000  0.666100  1.0  0.1019
  H  H13  1  0.045400  0.345200  0.739800  1.0  0.0721
  H  H14  1  0.883500  0.278200  0.753700  1.0  0.1106
  H  H15  1  0.619200  0.924500  0.736000  1.0  0.0576
  H  H16  1  0.696100  0.914000  0.833800  1.0  0.0916
  H  H17  1  0.482000  0.837800  0.745000  1.0  0.0801
  H  H18  1  0.224200  0.793000  0.833900  1.0  0.1015
  H  H19  1  0.954600  0.845200  0.760200  1.0  0.072
  H  H20  1  0.116500  0.778200  0.746300  1.0  0.1103
  H  H21  1  0.619200  0.575500  0.236000  1.0  0.0572
  H  H22  1  0.696100  0.586000  0.333800  1.0  0.0917
  H  H23  1  0.482000  0.662200  0.245000  1.0  0.0802
  H  H24  1  0.224200  0.707000  0.333900  1.0  0.1016
  H  H25  1  0.954600  0.654800  0.260200  1.0  0.0722
  H  H26  1  0.116500  0.721800  0.246300  1.0  0.1105
  H  H27  1  0.380800  0.075500  0.264000  1.0  0.0576
  H  H28  1  0.303900  0.086000  0.166200  1.0  0.0892
  H  H29  1  0.518000  0.162200  0.255000  1.0  0.0808
  H  H30  1  0.775800  0.207000  0.166100  1.0  0.1019
  H  H31  1  0.045400  0.154800  0.239800  1.0  0.0724
  H  H32  1  0.883500  0.221800  0.253700  1.0  0.1108
  H  H33  1  0.922600  0.461800  0.442900  1.0  0.2069
  H  H34  1  0.869600  0.525600  0.428000  1.0  0.1704
  H  H35  1  0.847200  0.469300  0.386700  1.0  0.1711
  H  H36  1  0.963300  0.499800  0.389300  1.0  0.1477
  H  H37  1  0.734000  0.096300  0.086200  1.0  0.1485
  H  H38  1  0.645600  0.122800  0.042100  1.0  0.2026
  H  H39  1  0.691100  0.056300  0.033300  1.0  0.1822
  H  H40  1  0.766100  0.113200  0.022000  1.0  0.1661
  H  H41  1  0.077400  0.961800  0.057100  1.0  0.2059
  H  H42  1  0.130400  0.025600  0.072000  1.0  0.1675
  H  H43  1  0.152800  0.969300  0.113300  1.0  0.1708
  H  H44  1  0.036700  0.999800  0.110700  1.0  0.1479
  H  H45  1  0.266000  0.596300  0.413800  1.0  0.1456
  H  H46  1  0.354400  0.622800  0.457900  1.0  0.2062
  H  H47  1  0.308900  0.556300  0.466700  1.0  0.1842
  H  H48  1  0.233900  0.613200  0.478000  1.0  0.1663
  H  H49  1  0.077400  0.538200  0.557100  1.0  0.2063
  H  H50  1  0.130400  0.474400  0.572000  1.0  0.1631
  H  H51  1  0.152800  0.530700  0.613300  1.0  0.1718
  H  H52  1  0.036700  0.500200  0.610700  1.0  0.1479
  H  H53  1  0.266000  0.903700  0.913800  1.0  0.1456
  H  H54  1  0.354400  0.877200  0.957900  1.0  0.2034
  H  H55  1  0.308900  0.943700  0.966700  1.0  0.1848
  H  H56  1  0.233900  0.886800  0.978000  1.0  0.1648
  H  H57  1  0.922600  0.038200  0.942900  1.0  0.2066
  H  H58  1  0.869600  0.974400  0.928000  1.0  0.165
  H  H59  1  0.847200  0.030700  0.886700  1.0  0.1724
  H  H60  1  0.963300  0.000200  0.889300  1.0  0.147
  H  H61  1  0.734000  0.403700  0.586200  1.0  0.1487
  H  H62  1  0.645600  0.377200  0.542100  1.0  0.1997
  H  H63  1  0.691100  0.443700  0.533300  1.0  0.185
  H  H64  1  0.766100  0.386800  0.522000  1.0  0.1658
  W  W65  1  0.221110  0.078530  0.890930  1.0  2.2889
  W  W66  1  0.154850  0.955550  0.806580  1.0  1.9102
  W  W67  1  0.307110  0.219190  0.819070  1.0  2.3794
  W  W68  1  0.328340  0.227380  0.674690  1.0  2.3171
  W  W69  1  0.505850  0.143350  0.754850  1.0  2.3207
  W  W70  1  0.183510  0.965570  0.647450  1.0  2.3898
  W  W71  1  0.261600  0.090950  0.585340  1.0  2.319
  W  W72  1  0.438300  0.010590  0.662120  1.0  2.4414
  W  W73  1  0.023600  0.167640  0.799470  1.0  2.4733
  W  W74  1  0.962560  0.046650  0.718410  1.0  2.3542
  W  W75  1  0.418840  0.000810  0.821970  1.0  2.4413
  W  W76  1  0.044080  0.179450  0.657250  1.0  2.3578
  W  W77  1  0.778890  0.578530  0.609070  1.0  2.2949
  W  W78  1  0.845150  0.455550  0.693420  1.0  1.9104
  W  W79  1  0.692890  0.719190  0.680930  1.0  2.3785
  W  W80  1  0.671660  0.727380  0.825310  1.0  2.3142
  W  W81  1  0.494150  0.643350  0.745150  1.0  2.3232
  W  W82  1  0.816490  0.465570  0.852550  1.0  2.3839
  W  W83  1  0.738400  0.590950  0.914660  1.0  2.3177
  W  W84  1  0.561700  0.510590  0.837880  1.0  2.4447
  W  W85  1  0.976400  0.667640  0.700530  1.0  2.4687
  W  W86  1  0.037440  0.546650  0.781590  1.0  2.3541
  W  W87  1  0.581160  0.500810  0.678030  1.0  2.4415
  W  W88  1  0.955920  0.679450  0.842750  1.0  2.3536
  W  W89  1  0.778890  0.921470  0.109070  1.0  2.2945
  W  W90  1  0.845150  0.044450  0.193420  1.0  1.9099
  W  W91  1  0.692890  0.780810  0.180930  1.0  2.378
  W  W92  1  0.671660  0.772620  0.325310  1.0  2.3137
  W  W93  1  0.494150  0.856650  0.245150  1.0  2.322
  W  W94  1  0.816490  0.034430  0.352550  1.0  2.3843
  W  W95  1  0.738400  0.909050  0.414660  1.0  2.3165
  W  W96  1  0.561700  0.989410  0.337880  1.0  2.445
  W  W97  1  0.976400  0.832360  0.200530  1.0  2.4682
  W  W98  1  0.037440  0.953350  0.281590  1.0  2.3548
  W  W99  1  0.581160  0.999190  0.178030  1.0  2.4432
  W  W100  1  0.955920  0.820550  0.342750  1.0  2.3531
  W  W101  1  0.221110  0.421470  0.390930  1.0  2.2903
  W  W102  1  0.154850  0.544450  0.306580  1.0  1.9096
  W  W103  1  0.307110  0.280810  0.319070  1.0  2.3797
  W  W104  1  0.328340  0.272620  0.174690  1.0  2.3173
  W  W105  1  0.505850  0.356650  0.254850  1.0  2.3192
  W  W106  1  0.183510  0.534430  0.147450  1.0  2.3897
  W  W107  1  0.261600  0.409050  0.085340  1.0  2.3188
  W  W108  1  0.438300  0.489410  0.162120  1.0  2.4418
  W  W109  1  0.023600  0.332360  0.299470  1.0  2.4725
  W  W110  1  0.962560  0.453350  0.218410  1.0  2.3545
  W  W111  1  0.418840  0.499190  0.321970  1.0  2.4431
  W  W112  1  0.044080  0.320550  0.157250  1.0  2.3573
  C  C113  1  0.104000  0.351000  0.858100  1.0  0.6522
  C  C114  1  0.610000  0.328000  0.871500  1.0  0.6544
  C  C115  1  0.309000  0.407600  0.759500  1.0  0.1649
  C  C116  1  0.655000  0.315000  0.810500  1.0  0.0427
  C  C117  1  0.164000  0.367000  0.804000  1.0  0.0771
  C  C118  1  0.265000  0.402000  0.700500  1.0  0.1218
  C  C119  1  0.591000  0.322000  0.754700  1.0  0.2066
  C  C120  1  0.743000  0.296000  0.704000  1.0  0.1399
  C  C121  1  0.117000  0.363000  0.745000  1.0  0.1676
  C  C122  1  0.807000  0.286000  0.756000  1.0  0.1204
  C  C123  1  0.896000  0.851000  0.641900  1.0  0.6525
  C  C124  1  0.390000  0.828000  0.628500  1.0  0.6543
  C  C125  1  0.691000  0.907600  0.740500  1.0  0.165
  C  C126  1  0.345000  0.815000  0.689500  1.0  0.0417
  C  C127  1  0.836000  0.867000  0.696000  1.0  0.0777
  C  C128  1  0.735000  0.902000  0.799500  1.0  0.1207
  C  C129  1  0.409000  0.822000  0.745300  1.0  0.2061
  C  C130  1  0.257000  0.796000  0.796000  1.0  0.1385
  C  C131  1  0.883000  0.863000  0.755000  1.0  0.1684
  C  C132  1  0.193000  0.786000  0.744000  1.0  0.1215
  C  C133  1  0.896000  0.649000  0.141900  1.0  0.6528
  C  C134  1  0.390000  0.672000  0.128500  1.0  0.6544
  C  C135  1  0.691000  0.592400  0.240500  1.0  0.1655
  C  C136  1  0.345000  0.685000  0.189500  1.0  0.0413
  C  C137  1  0.836000  0.633000  0.196000  1.0  0.0773
  C  C138  1  0.735000  0.598000  0.299500  1.0  0.1212
  C  C139  1  0.409000  0.678000  0.245300  1.0  0.2059
  C  C140  1  0.257000  0.704000  0.296000  1.0  0.1374
  C  C141  1  0.883000  0.637000  0.255000  1.0  0.1683
  C  C142  1  0.193000  0.714000  0.244000  1.0  0.1216
  C  C143  1  0.104000  0.149000  0.358100  1.0  0.6529
  C  C144  1  0.610000  0.172000  0.371500  1.0  0.6541
  C  C145  1  0.309000  0.092400  0.259500  1.0  0.1647
  C  C146  1  0.655000  0.185000  0.310500  1.0  0.042
  C  C147  1  0.164000  0.133000  0.304000  1.0  0.0769
  C  C148  1  0.265000  0.098000  0.200500  1.0  0.1221
  C  C149  1  0.591000  0.178000  0.254700  1.0  0.2065
  C  C150  1  0.743000  0.204000  0.204000  1.0  0.1395
  C  C151  1  0.117000  0.137000  0.245000  1.0  0.1677
  C  C152  1  0.807000  0.214000  0.256000  1.0  0.121
  N  N153  1  0.264000  0.391800  0.806700  1.0  -0.3775
  N  N154  1  0.761000  0.296100  0.810600  1.0  -0.4463
  N  N155  1  0.165000  0.379500  0.698000  1.0  -0.3682
  N  N156  1  0.630000  0.306800  0.708100  1.0  -0.3047
  N  N157  1  0.736000  0.891800  0.693300  1.0  -0.3776
  N  N158  1  0.239000  0.796100  0.689400  1.0  -0.4463
  N  N159  1  0.835000  0.879500  0.802000  1.0  -0.3712
  N  N160  1  0.370000  0.806800  0.791900  1.0  -0.3061
  N  N161  1  0.736000  0.608200  0.193300  1.0  -0.3788
  N  N162  1  0.239000  0.703900  0.189400  1.0  -0.4457
  N  N163  1  0.835000  0.620500  0.302000  1.0  -0.371
  N  N164  1  0.370000  0.693200  0.291900  1.0  -0.3063
  N  N165  1  0.264000  0.108200  0.306700  1.0  -0.3777
  N  N166  1  0.761000  0.203900  0.310600  1.0  -0.4462
  N  N167  1  0.165000  0.120500  0.198000  1.0  -0.3678
  N  N168  1  0.630000  0.193200  0.208100  1.0  -0.3039
  N  N169  1  0.901000  0.489000  0.412000  1.0  -0.6379
  N  N170  1  0.709000  0.097000  0.046000  1.0  -0.6532
  N  N171  1  0.099000  0.989000  0.088000  1.0  -0.638
  N  N172  1  0.291000  0.597000  0.454000  1.0  -0.6546
  N  N173  1  0.099000  0.511000  0.588000  1.0  -0.6376
  N  N174  1  0.291000  0.903000  0.954000  1.0  -0.6542
  N  N175  1  0.901000  0.011000  0.912000  1.0  -0.6377
  N  N176  1  0.709000  0.403000  0.546000  1.0  -0.6534
  O  O177  1  0.201000  0.086500  0.960100  1.0  -0.6143
  O  O178  1  0.554000  0.971100  0.640200  1.0  -0.7087
  O  O179  1  0.938000  0.209600  0.842800  1.0  -0.7836
  O  O180  1  0.014000  0.325700  0.852400  1.0  -0.6885
  O  O181  1  0.841000  0.013000  0.709600  1.0  -0.5665
  O  O182  1  0.267000  0.106300  0.515200  1.0  -0.8078
  O  O183  1  0.147000  0.899100  0.612800  1.0  -0.7829
  O  O184  1  0.666000  0.319700  0.918200  1.0  -0.6714
  O  O185  1  0.475000  0.208600  0.695500  1.0  -0.695
  O  O186  1  0.758000  0.200300  0.918900  1.0  -0.2593
  O  O187  1  0.515000  0.348000  0.874700  1.0  -0.7237
  O  O188  1  0.157000  0.363900  0.907500  1.0  -0.6082
  O  O189  1  0.276000  0.048600  0.669200  1.0  -0.8273
  O  O190  1  0.519000  0.959700  0.858300  1.0  -0.6176
  O  O191  1  0.973000  0.220600  0.607400  1.0  -0.5964
  O  O192  1  0.490000  0.431300  0.980100  1.0  -0.2886
  O  O193  1  0.478000  0.076600  0.808900  1.0  -0.794
  O  O194  1  0.103000  0.115200  0.728100  1.0  -0.8951
  O  O195  1  0.176000  0.226400  0.668200  1.0  -0.7642
  O  O196  1  0.941000  0.113700  0.658700  1.0  -0.7238
  O  O197  1  0.356000  0.290300  0.635700  1.0  -0.6114
  O  O198  1  0.501000  0.082000  0.694700  1.0  -0.7573
  O  O199  1  0.319000  0.270900  0.750400  1.0  -0.7155
  O  O200  1  0.093000  0.115900  0.854400  1.0  -0.817
  O  O201  1  0.461000  0.203200  0.814200  1.0  -0.6913
  O  O202  1  0.259000  0.482000  0.922300  1.0  -0.2596
  O  O203  1  0.341000  0.948800  0.645100  1.0  -0.7738
  O  O204  1  0.187000  0.013900  0.576100  1.0  -0.6719
  O  O205  1  0.995000  0.349200  0.978500  1.0  -0.2585
  O  O206  1  0.990000  0.217000  0.969600  1.0  -0.2204
  O  O207  1  0.919000  0.104900  0.777000  1.0  -0.6828
  O  O208  1  0.333000  0.163800  0.617300  1.0  -0.7666
  O  O209  1  0.253000  0.044100  0.800500  1.0  -0.8705
  O  O210  1  0.144000  0.999700  0.880800  1.0  -0.7179
  O  O211  1  0.154000  0.216000  0.803500  1.0  -0.7358
  O  O212  1  0.102000  0.889000  0.822700  1.0  -0.584
  O  O213  1  0.310000  0.936700  0.826500  1.0  -0.6379
  O  O214  1  0.037000  0.996700  0.777500  1.0  -0.7694
  O  O215  1  0.408000  0.050000  0.588300  1.0  -0.7077
  O  O216  1  0.438000  0.981900  0.745200  1.0  -0.7821
  O  O217  1  0.320400  0.280300  0.869500  1.0  -0.7645
  O  O218  1  0.412000  0.293500  0.983300  1.0  -0.2994
  O  O219  1  0.799000  0.294000  0.016500  1.0  -0.2292
  O  O220  1  0.193000  0.941500  0.726000  1.0  -0.7796
  O  O221  1  0.989000  0.209700  0.729500  1.0  -0.8237
  O  O222  1  0.329000  0.155500  0.744200  1.0  -0.8808
  O  O223  1  0.048000  0.002100  0.663600  1.0  -0.759
  O  O224  1  0.357000  0.041000  0.892600  1.0  -0.7271
  O  O225  1  0.301000  0.152500  0.865600  1.0  -0.8024
  O  O226  1  0.123000  0.125600  0.604600  1.0  -0.7953
  O  O227  1  0.635000  0.153000  0.758900  1.0  -0.5485
  O  O228  1  0.799000  0.586500  0.539900  1.0  -0.6183
  O  O229  1  0.446000  0.471100  0.859800  1.0  -0.7084
  O  O230  1  0.062000  0.709600  0.657200  1.0  -0.7827
  O  O231  1  0.986000  0.825700  0.647600  1.0  -0.687
  O  O232  1  0.159000  0.513000  0.790400  1.0  -0.5658
  O  O233  1  0.733000  0.606300  0.984800  1.0  -0.8092
  O  O234  1  0.853000  0.399100  0.887200  1.0  -0.7779
  O  O235  1  0.334000  0.819700  0.581800  1.0  -0.6698
  O  O236  1  0.525000  0.708600  0.804500  1.0  -0.6961
  O  O237  1  0.242000  0.700300  0.581100  1.0  -0.2568
  O  O238  1  0.485000  0.848000  0.625300  1.0  -0.7233
  O  O239  1  0.843000  0.863900  0.592500  1.0  -0.6058
  O  O240  1  0.724000  0.548600  0.830800  1.0  -0.8287
  O  O241  1  0.481000  0.459700  0.641700  1.0  -0.6195
  O  O242  1  0.027000  0.720600  0.892600  1.0  -0.5924
  O  O243  1  0.510000  0.931300  0.519900  1.0  -0.2886
  O  O244  1  0.522000  0.576600  0.691100  1.0  -0.795
  O  O245  1  0.897000  0.615200  0.771900  1.0  -0.8945
  O  O246  1  0.824000  0.726400  0.831800  1.0  -0.7655
  O  O247  1  0.059000  0.613700  0.841300  1.0  -0.726
  O  O248  1  0.644000  0.790300  0.864300  1.0  -0.6121
  O  O249  1  0.499000  0.582000  0.805300  1.0  -0.7624
  O  O250  1  0.681000  0.770900  0.749600  1.0  -0.7164
  O  O251  1  0.907000  0.615900  0.645600  1.0  -0.8181
  O  O252  1  0.539000  0.703200  0.685800  1.0  -0.6899
  O  O253  1  0.741000  0.982000  0.577700  1.0  -0.2587
  O  O254  1  0.659000  0.448800  0.854900  1.0  -0.7717
  O  O255  1  0.813000  0.513900  0.923900  1.0  -0.671
  O  O256  1  0.005000  0.849200  0.521500  1.0  -0.2583
  O  O257  1  0.010000  0.717000  0.530400  1.0  -0.2205
  O  O258  1  0.081000  0.604900  0.723000  1.0  -0.6855
  O  O259  1  0.667000  0.663800  0.882700  1.0  -0.7716
  O  O260  1  0.747000  0.544100  0.699500  1.0  -0.868
  O  O261  1  0.856000  0.499700  0.619200  1.0  -0.7169
  O  O262  1  0.846000  0.716000  0.696500  1.0  -0.7361
  O  O263  1  0.898000  0.389000  0.677300  1.0  -0.5828
  O  O264  1  0.690000  0.436700  0.673500  1.0  -0.6364
  O  O265  1  0.963000  0.496700  0.722500  1.0  -0.769
  O  O266  1  0.592000  0.550000  0.911700  1.0  -0.7065
  O  O267  1  0.562000  0.481900  0.754800  1.0  -0.7816
  O  O268  1  0.679600  0.780300  0.630500  1.0  -0.7655
  O  O269  1  0.588000  0.793500  0.516700  1.0  -0.2994
  O  O270  1  0.201000  0.794000  0.483500  1.0  -0.2293
  O  O271  1  0.807000  0.441500  0.774000  1.0  -0.7792
  O  O272  1  0.011000  0.709700  0.770500  1.0  -0.8249
  O  O273  1  0.671000  0.655500  0.755800  1.0  -0.8813
  O  O274  1  0.952000  0.502100  0.836400  1.0  -0.7611
  O  O275  1  0.643000  0.541000  0.607400  1.0  -0.7287
  O  O276  1  0.699000  0.652500  0.634400  1.0  -0.804
  O  O277  1  0.877000  0.625600  0.895400  1.0  -0.797
  O  O278  1  0.365000  0.653000  0.741100  1.0  -0.5479
  O  O279  1  0.799000  0.913500  0.039900  1.0  -0.6163
  O  O280  1  0.446000  0.028900  0.359800  1.0  -0.7083
  O  O281  1  0.062000  0.790400  0.157200  1.0  -0.783
  O  O282  1  0.986000  0.674300  0.147600  1.0  -0.6875
  O  O283  1  0.159000  0.987000  0.290400  1.0  -0.5672
  O  O284  1  0.733000  0.893700  0.484800  1.0  -0.8101
  O  O285  1  0.853000  0.100900  0.387200  1.0  -0.7777
  O  O286  1  0.334000  0.680300  0.081800  1.0  -0.6696
  O  O287  1  0.525000  0.791400  0.304500  1.0  -0.6963
  O  O288  1  0.242000  0.799700  0.081100  1.0  -0.259
  O  O289  1  0.485000  0.652000  0.125300  1.0  -0.7232
  O  O290  1  0.843000  0.636100  0.092500  1.0  -0.6063
  O  O291  1  0.724000  0.951400  0.330800  1.0  -0.8295
  O  O292  1  0.481000  0.040300  0.141700  1.0  -0.6194
  O  O293  1  0.027000  0.779400  0.392600  1.0  -0.5929
  O  O294  1  0.510000  0.568700  0.019900  1.0  -0.2887
  O  O295  1  0.522000  0.923400  0.191100  1.0  -0.7955
  O  O296  1  0.897000  0.884800  0.271900  1.0  -0.8949
  O  O297  1  0.824000  0.773600  0.331800  1.0  -0.7628
  O  O298  1  0.059000  0.886300  0.341300  1.0  -0.7261
  O  O299  1  0.644000  0.709700  0.364300  1.0  -0.613
  O  O300  1  0.499000  0.918000  0.305300  1.0  -0.7625
  O  O301  1  0.681000  0.729100  0.249600  1.0  -0.7173
  O  O302  1  0.907000  0.884100  0.145600  1.0  -0.8183
  O  O303  1  0.539000  0.796800  0.185800  1.0  -0.6901
  O  O304  1  0.741000  0.518000  0.077700  1.0  -0.2586
  O  O305  1  0.659000  0.051200  0.354900  1.0  -0.7719
  O  O306  1  0.813000  0.986100  0.423900  1.0  -0.6711
  O  O307  1  0.005000  0.650800  0.021500  1.0  -0.2581
  O  O308  1  0.010000  0.783000  0.030400  1.0  -0.2202
  O  O309  1  0.081000  0.895100  0.223000  1.0  -0.6857
  O  O310  1  0.667000  0.836200  0.382700  1.0  -0.7706
  O  O311  1  0.747000  0.955900  0.199500  1.0  -0.8681
  O  O312  1  0.856000  0.000300  0.119200  1.0  -0.7172
  O  O313  1  0.846000  0.784000  0.196500  1.0  -0.7364
  O  O314  1  0.898000  0.111000  0.177300  1.0  -0.5823
  O  O315  1  0.690000  0.063300  0.173500  1.0  -0.6332
  O  O316  1  0.963000  0.003300  0.222500  1.0  -0.7693
  O  O317  1  0.592000  0.950000  0.411700  1.0  -0.7055
  O  O318  1  0.562000  0.018100  0.254800  1.0  -0.7814
  O  O319  1  0.679600  0.719700  0.130500  1.0  -0.7658
  O  O320  1  0.588000  0.706500  0.016700  1.0  -0.2986
  O  O321  1  0.201000  0.706000  0.983500  1.0  -0.2296
  O  O322  1  0.807000  0.058500  0.274000  1.0  -0.7794
  O  O323  1  0.011000  0.790300  0.270500  1.0  -0.8247
  O  O324  1  0.671000  0.844500  0.255800  1.0  -0.8803
  O  O325  1  0.952000  0.997900  0.336400  1.0  -0.7619
  O  O326  1  0.643000  0.959000  0.107400  1.0  -0.7277
  O  O327  1  0.699000  0.847500  0.134400  1.0  -0.8032
  O  O328  1  0.877000  0.874400  0.395400  1.0  -0.7973
  O  O329  1  0.365000  0.847000  0.241100  1.0  -0.5482
  O  O330  1  0.201000  0.413500  0.460100  1.0  -0.6135
  O  O331  1  0.554000  0.528900  0.140200  1.0  -0.7082
  O  O332  1  0.938000  0.290400  0.342800  1.0  -0.7837
  O  O333  1  0.014000  0.174300  0.352400  1.0  -0.6887
  O  O334  1  0.841000  0.487000  0.209600  1.0  -0.5671
  O  O335  1  0.267000  0.393700  0.015200  1.0  -0.8085
  O  O336  1  0.147000  0.600900  0.112800  1.0  -0.7819
  O  O337  1  0.666000  0.180300  0.418200  1.0  -0.6719
  O  O338  1  0.475000  0.291400  0.195500  1.0  -0.6958
  O  O339  1  0.758000  0.299700  0.418900  1.0  -0.2607
  O  O340  1  0.515000  0.152000  0.374700  1.0  -0.7229
  O  O341  1  0.157000  0.136100  0.407500  1.0  -0.6084
  O  O342  1  0.276000  0.451400  0.169200  1.0  -0.8279
  O  O343  1  0.519000  0.540300  0.358300  1.0  -0.6172
  O  O344  1  0.973000  0.279400  0.107400  1.0  -0.5963
  O  O345  1  0.490000  0.068700  0.480100  1.0  -0.2883
  O  O346  1  0.478000  0.423400  0.308900  1.0  -0.7944
  O  O347  1  0.103000  0.384800  0.228100  1.0  -0.8951
  O  O348  1  0.176000  0.273600  0.168200  1.0  -0.7616
  O  O349  1  0.941000  0.386300  0.158700  1.0  -0.724
  O  O350  1  0.356000  0.209700  0.135700  1.0  -0.612
  O  O351  1  0.501000  0.418000  0.194700  1.0  -0.7569
  O  O352  1  0.319000  0.229100  0.250400  1.0  -0.7168
  O  O353  1  0.093000  0.384100  0.354400  1.0  -0.818
  O  O354  1  0.461000  0.296800  0.314200  1.0  -0.6911
  O  O355  1  0.259000  0.018000  0.422300  1.0  -0.2597
  O  O356  1  0.341000  0.551200  0.145100  1.0  -0.7731
  O  O357  1  0.187000  0.486100  0.076100  1.0  -0.6721
  O  O358  1  0.995000  0.150800  0.478500  1.0  -0.2585
  O  O359  1  0.990000  0.283000  0.469600  1.0  -0.2199
  O  O360  1  0.919000  0.395100  0.277000  1.0  -0.6827
  O  O361  1  0.333000  0.336200  0.117300  1.0  -0.7654
  O  O362  1  0.253000  0.455900  0.300500  1.0  -0.8712
  O  O363  1  0.144000  0.500300  0.380800  1.0  -0.7172
  O  O364  1  0.154000  0.284000  0.303500  1.0  -0.7357
  O  O365  1  0.102000  0.611000  0.322700  1.0  -0.5833
  O  O366  1  0.310000  0.563300  0.326500  1.0  -0.6354
  O  O367  1  0.037000  0.503300  0.277500  1.0  -0.7697
  O  O368  1  0.408000  0.450000  0.088300  1.0  -0.7062
  O  O369  1  0.438000  0.518100  0.245200  1.0  -0.7816
  O  O370  1  0.320400  0.219700  0.369500  1.0  -0.7651
  O  O371  1  0.412000  0.206500  0.483300  1.0  -0.2979
  O  O372  1  0.799000  0.206000  0.516500  1.0  -0.2295
  O  O373  1  0.193000  0.558500  0.226000  1.0  -0.7796
  O  O374  1  0.989000  0.290300  0.229500  1.0  -0.8234
  O  O375  1  0.329000  0.344500  0.244200  1.0  -0.88
  O  O376  1  0.048000  0.497900  0.163600  1.0  -0.7593
  O  O377  1  0.357000  0.459000  0.392600  1.0  -0.7271
  O  O378  1  0.301000  0.347500  0.365600  1.0  -0.8027
  O  O379  1  0.123000  0.374400  0.104600  1.0  -0.7951
  O  O380  1  0.635000  0.347000  0.258900  1.0  -0.5484
