# generated using pymatgen
data_CuH4(C2O)4
_symmetry_space_group_name_H-M   'P 1'
_cell_length_a   6.60500000
_cell_length_b   10.44780000
_cell_length_c   11.08810000
_cell_angle_alpha   62.06400000
_cell_angle_beta   73.41000000
_cell_angle_gamma   78.40400000
_symmetry_Int_Tables_number   1
_chemical_formula_structural   CuH4(C2O)4
_chemical_formula_sum   'Cu2 H8 C16 O8'
_cell_volume   645.81409628
_cell_formula_units_Z   2
loop_
 _symmetry_equiv_pos_site_id
 _symmetry_equiv_pos_as_xyz
  1  'x, y, z'
loop_
 _atom_site_type_symbol
 _atom_site_label
 _atom_site_symmetry_multiplicity
 _atom_site_fract_x
 _atom_site_fract_y
 _atom_site_fract_z
 _atom_site_occupancy
 _atom_site_charge
  Cu  Cu1  1  0.000000  0.000000  0.500000  1.0  0.9708
  Cu  Cu2  1  0.500000  0.000000  0.500000  1.0  0.6878
  H  H3  1  0.586700  0.731000  0.442900  1.0  0.1061
  H  H4  1  0.146200  0.445300  0.577600  1.0  0.1121
  H  H5  1  0.347800  0.046500  0.872800  1.0  0.1122
  H  H6  1  0.763800  0.950300  0.908300  1.0  0.1157
  H  H7  1  0.413300  0.269000  0.557100  1.0  0.1064
  H  H8  1  0.853800  0.554700  0.422400  1.0  0.1121
  H  H9  1  0.652200  0.953500  0.127200  1.0  0.1121
  H  H10  1  0.236200  0.049700  0.091700  1.0  0.1157
  C  C11  1  0.136300  0.996100  0.728900  1.0  0.7161
  C  C12  1  0.164700  0.717700  0.526000  1.0  0.694
  C  C13  1  0.551400  0.637100  0.466300  1.0  -0.0429
  C  C14  1  0.065500  0.998700  0.869700  1.0  -0.1104
  C  C15  1  0.340200  0.605400  0.513200  1.0  -0.1167
  C  C16  1  0.290100  0.467400  0.546300  1.0  -0.0383
  C  C17  1  0.206300  0.027700  0.924400  1.0  -0.0353
  C  C18  1  0.860000  0.970700  0.945300  1.0  -0.0372
  C  C19  1  0.863700  0.003900  0.271100  1.0  0.7165
  C  C20  1  0.835300  0.282300  0.474000  1.0  0.6973
  C  C21  1  0.448600  0.362900  0.533700  1.0  -0.0421
  C  C22  1  0.934500  0.001300  0.130300  1.0  -0.111
  C  C23  1  0.659800  0.394600  0.486800  1.0  -0.1169
  C  C24  1  0.709900  0.532600  0.453700  1.0  -0.0385
  C  C25  1  0.793700  0.972300  0.075600  1.0  -0.0356
  C  C26  1  0.140000  0.029300  0.054700  1.0  -0.0376
  O  O27  1  0.329200  0.012500  0.669800  1.0  -0.58
  O  O28  1  0.213000  0.832400  0.520700  1.0  -0.5983
  O  O29  1  0.997700  0.978000  0.684100  1.0  -0.5894
  O  O30  1  0.981100  0.691900  0.540500  1.0  -0.5373
  O  O31  1  0.670800  0.987500  0.330200  1.0  -0.58
  O  O32  1  0.787000  0.167600  0.479300  1.0  -0.5968
  O  O33  1  0.002300  0.022000  0.315900  1.0  -0.5932
  O  O34  1  0.018900  0.308100  0.459500  1.0  -0.5375
