# generated using pymatgen
data_CeSiH17(C7O2)4
_symmetry_space_group_name_H-M   'P 1'
_cell_length_a   14.53450000
_cell_length_b   14.53450000
_cell_length_c   21.93560000
_cell_angle_alpha   82.26360000
_cell_angle_beta   82.26360000
_cell_angle_gamma   66.64770000
_symmetry_Int_Tables_number   1
_chemical_formula_structural   CeSiH17(C7O2)4
_chemical_formula_sum   'Ce4 Si4 H68 C112 O32'
_cell_volume   4198.77053997
_cell_formula_units_Z   4
loop_
 _symmetry_equiv_pos_site_id
 _symmetry_equiv_pos_as_xyz
  1  'x, y, z'
loop_
 _atom_site_type_symbol
 _atom_site_label
 _atom_site_symmetry_multiplicity
 _atom_site_fract_x
 _atom_site_fract_y
 _atom_site_fract_z
 _atom_site_occupancy
 _atom_site_charge
  Ce  Ce1  1  0.532070  0.951850  0.595730  1.0  2.2
  Ce  Ce2  1  0.048150  0.467930  0.904270  1.0  2.2
  Ce  Ce3  1  0.467930  0.048150  0.404270  1.0  2.199
  Ce  Ce4  1  0.951850  0.532070  0.095730  1.0  2.2014
  Si  Si5  1  0.889300  0.349320  0.506090  1.0  0.8823
  Si  Si6  1  0.650680  0.110700  0.993910  1.0  0.8823
  Si  Si7  1  0.110700  0.650680  0.493910  1.0  0.8821
  Si  Si8  1  0.349320  0.889300  0.006090  1.0  0.882
  H  H9  1  0.743000  0.706200  0.538500  1.0  0.0865
  H  H10  1  0.819300  0.568900  0.481700  1.0  0.0885
  H  H11  1  0.825700  0.386900  0.635000  1.0  0.104
  H  H12  1  0.754000  0.522400  0.691400  1.0  0.0907
  H  H13  1  0.680300  0.376700  0.504900  1.0  0.0938
  H  H14  1  0.584400  0.282200  0.532100  1.0  0.1117
  H  H15  1  0.826700  0.047500  0.587700  1.0  0.11
  H  H16  1  0.923800  0.142200  0.557800  1.0  0.0919
  H  H17  1  0.015400  0.491800  0.317500  1.0  0.0966
  H  H18  1  0.003200  0.442600  0.421300  1.0  0.0826
  H  H19  1  0.791600  0.343000  0.396200  1.0  0.0839
  H  H20  1  0.808100  0.388100  0.291600  1.0  0.1097
  H  H21  1  0.027400  0.340000  0.598400  1.0  0.0866
  H  H22  1  0.190600  0.240000  0.618100  1.0  0.1127
  H  H23  1  0.218800  0.088800  0.471900  1.0  0.1092
  H  H24  1  0.054700  0.184500  0.455300  1.0  0.0988
  H  H25  1  0.704600  0.644800  0.725500  1.0  0.4292
  H  H26  1  0.293800  0.257000  0.961500  1.0  0.0845
  H  H27  1  0.431100  0.180700  0.018300  1.0  0.0879
  H  H28  1  0.613100  0.174300  0.865000  1.0  0.1028
  H  H29  1  0.477600  0.246000  0.808600  1.0  0.0935
  H  H30  1  0.623300  0.319700  0.995100  1.0  0.0951
  H  H31  1  0.717800  0.415600  0.967900  1.0  0.1116
  H  H32  1  0.952500  0.173300  0.912300  1.0  0.1095
  H  H33  1  0.857800  0.076200  0.942200  1.0  0.0908
  H  H34  1  0.508200  0.984600  0.182500  1.0  0.0966
  H  H35  1  0.557400  0.996800  0.078700  1.0  0.081
  H  H36  1  0.657000  0.208400  0.103800  1.0  0.0838
  H  H37  1  0.611900  0.191900  0.208400  1.0  0.11
  H  H38  1  0.660000  0.972600  0.901600  1.0  0.0864
  H  H39  1  0.760000  0.809400  0.881900  1.0  0.1124
  H  H40  1  0.911200  0.781200  0.028100  1.0  0.1094
  H  H41  1  0.815500  0.945300  0.044700  1.0  0.0977
  H  H42  1  0.355200  0.295400  0.774500  1.0  0.4334
  H  H43  1  0.257000  0.293800  0.461500  1.0  0.0845
  H  H44  1  0.180700  0.431100  0.518300  1.0  0.0878
  H  H45  1  0.174300  0.613100  0.365000  1.0  0.1036
  H  H46  1  0.246000  0.477600  0.308600  1.0  0.0932
  H  H47  1  0.319700  0.623300  0.495100  1.0  0.094
  H  H48  1  0.415600  0.717800  0.467900  1.0  0.1107
  H  H49  1  0.173300  0.952500  0.412300  1.0  0.1098
  H  H50  1  0.076200  0.857800  0.442200  1.0  0.0922
  H  H51  1  0.984600  0.508200  0.682500  1.0  0.0972
  H  H52  1  0.996800  0.557400  0.578700  1.0  0.081
  H  H53  1  0.208400  0.657000  0.603800  1.0  0.084
  H  H54  1  0.191900  0.611900  0.708400  1.0  0.1103
  H  H55  1  0.972600  0.660000  0.401600  1.0  0.0868
  H  H56  1  0.809400  0.760000  0.381900  1.0  0.1121
  H  H57  1  0.781200  0.911200  0.528100  1.0  0.109
  H  H58  1  0.945300  0.815500  0.544700  1.0  0.0981
  H  H59  1  0.295400  0.355200  0.274500  1.0  0.4334
  H  H60  1  0.706200  0.743000  0.038500  1.0  0.0846
  H  H61  1  0.568900  0.819300  0.981700  1.0  0.0884
  H  H62  1  0.386900  0.825700  0.135000  1.0  0.1034
  H  H63  1  0.522400  0.754000  0.191400  1.0  0.0915
  H  H64  1  0.376700  0.680300  0.004900  1.0  0.0947
  H  H65  1  0.282200  0.584400  0.032100  1.0  0.111
  H  H66  1  0.047500  0.826700  0.087700  1.0  0.1097
  H  H67  1  0.142200  0.923800  0.057800  1.0  0.0912
  H  H68  1  0.491800  0.015400  0.817500  1.0  0.096
  H  H69  1  0.442600  0.003200  0.921300  1.0  0.0824
  H  H70  1  0.343000  0.791600  0.896200  1.0  0.0835
  H  H71  1  0.388100  0.808100  0.791600  1.0  0.1102
  H  H72  1  0.340000  0.027400  0.098400  1.0  0.0866
  H  H73  1  0.240000  0.190600  0.118100  1.0  0.1127
  H  H74  1  0.088800  0.218800  0.971900  1.0  0.11
  H  H75  1  0.184500  0.054700  0.955300  1.0  0.0986
  H  H76  1  0.644800  0.704600  0.225500  1.0  0.4334
  C  C77  1  0.693230  0.717630  0.658640  1.0  0.7056
  C  C78  1  0.738790  0.628590  0.621030  1.0  -0.2091
  C  C79  1  0.759580  0.641580  0.558230  1.0  0.0005
  C  C80  1  0.805150  0.558750  0.524060  1.0  -0.0002
  C  C81  1  0.830110  0.461910  0.551180  1.0  -0.3115
  C  C82  1  0.809400  0.451200  0.614880  1.0  -0.0006
  C  C83  1  0.765700  0.532500  0.648770  1.0  -0.0709
  C  C84  1  0.813910  0.269310  0.527540  1.0  -0.3676
  C  C85  1  0.710550  0.310150  0.520920  1.0  -0.0304
  C  C86  1  0.652720  0.253920  0.537620  1.0  -0.0816
  C  C87  1  0.695820  0.155020  0.562740  1.0  -0.1044
  C  C88  1  0.634040  0.092440  0.580290  1.0  0.663
  C  C89  1  0.797170  0.113570  0.570570  1.0  -0.0587
  C  C90  1  0.855310  0.170910  0.552700  1.0  -0.0097
  C  C91  1  0.328750  0.091350  0.559130  1.0  0.726
  C  C92  1  0.927390  0.470790  0.225560  1.0  0.6736
  C  C93  1  0.914280  0.442880  0.293270  1.0  -0.0996
  C  C94  1  0.971200  0.460600  0.333150  1.0  -0.0597
  C  C95  1  0.962760  0.432360  0.395600  1.0  -0.0158
  C  C96  1  0.894480  0.388680  0.421000  1.0  -0.3637
  C  C97  1  0.837230  0.372430  0.380680  1.0  -0.0104
  C  C98  1  0.847240  0.399440  0.317620  1.0  -0.0707
  C  C99  1  0.022240  0.273640  0.524290  1.0  -0.3605
  C  C100  1  0.065380  0.288980  0.573160  1.0  -0.0124
  C  C101  1  0.163670  0.229670  0.584720  1.0  -0.0518
  C  C102  1  0.222390  0.154590  0.546640  1.0  -0.1099
  C  C103  1  0.180340  0.138740  0.497730  1.0  -0.075
  C  C104  1  0.082090  0.196890  0.487660  1.0  -0.0102
  C  C105  1  0.282370  0.306770  0.841360  1.0  0.7064
  C  C106  1  0.371410  0.261210  0.878970  1.0  -0.2063
  C  C107  1  0.358420  0.240420  0.941770  1.0  -0.0013
  C  C108  1  0.441250  0.194850  0.975940  1.0  -0.0017
  C  C109  1  0.538090  0.169890  0.948820  1.0  -0.315
  C  C110  1  0.548800  0.190600  0.885120  1.0  -0.0033
  C  C111  1  0.467500  0.234300  0.851230  1.0  -0.0751
  C  C112  1  0.730690  0.186090  0.972460  1.0  -0.369
  C  C113  1  0.689850  0.289450  0.979080  1.0  -0.0356
  C  C114  1  0.746080  0.347280  0.962380  1.0  -0.08
  C  C115  1  0.844980  0.304180  0.937260  1.0  -0.1049
  C  C116  1  0.907560  0.365960  0.919710  1.0  0.661
  C  C117  1  0.886430  0.202830  0.929430  1.0  -0.0617
  C  C118  1  0.829090  0.144690  0.947300  1.0  -0.0078
  C  C119  1  0.908650  0.671250  0.940870  1.0  0.7271
  C  C120  1  0.529210  0.072610  0.274440  1.0  0.6701
  C  C121  1  0.557120  0.085720  0.206730  1.0  -0.0995
  C  C122  1  0.539400  0.028800  0.166850  1.0  -0.0615
  C  C123  1  0.567640  0.037240  0.104400  1.0  -0.0153
  C  C124  1  0.611320  0.105520  0.079000  1.0  -0.3635
  C  C125  1  0.627570  0.162770  0.119320  1.0  -0.0176
  C  C126  1  0.600560  0.152760  0.182380  1.0  -0.0712
  C  C127  1  0.726360  0.977760  0.975710  1.0  -0.3603
  C  C128  1  0.711020  0.934620  0.926840  1.0  -0.0085
  C  C129  1  0.770330  0.836330  0.915280  1.0  -0.0482
  C  C130  1  0.845410  0.777610  0.953360  1.0  -0.1129
  C  C131  1  0.861260  0.819660  0.002270  1.0  -0.0733
  C  C132  1  0.803110  0.917910  0.012340  1.0  -0.005
  C  C133  1  0.306770  0.282370  0.341360  1.0  0.7066
  C  C134  1  0.261210  0.371410  0.378970  1.0  -0.2092
  C  C135  1  0.240420  0.358420  0.441770  1.0  0.002
  C  C136  1  0.194850  0.441250  0.475940  1.0  0.0019
  C  C137  1  0.169890  0.538090  0.448820  1.0  -0.3134
  C  C138  1  0.190600  0.548800  0.385120  1.0  -0.0078
  C  C139  1  0.234300  0.467500  0.351230  1.0  -0.0749
  C  C140  1  0.186090  0.730690  0.472460  1.0  -0.368
  C  C141  1  0.289450  0.689850  0.479080  1.0  -0.0307
  C  C142  1  0.347280  0.746080  0.462380  1.0  -0.0795
  C  C143  1  0.304180  0.844980  0.437260  1.0  -0.1061
  C  C144  1  0.365960  0.907560  0.419710  1.0  0.6633
  C  C145  1  0.202830  0.886430  0.429430  1.0  -0.0607
  C  C146  1  0.144690  0.829090  0.447300  1.0  -0.011
  C  C147  1  0.671250  0.908650  0.440870  1.0  0.727
  C  C148  1  0.072610  0.529210  0.774440  1.0  0.6718
  C  C149  1  0.085720  0.557120  0.706730  1.0  -0.0996
  C  C150  1  0.028800  0.539400  0.666850  1.0  -0.0614
  C  C151  1  0.037240  0.567640  0.604400  1.0  -0.0164
  C  C152  1  0.105520  0.611320  0.579000  1.0  -0.3619
  C  C153  1  0.162770  0.627570  0.619320  1.0  -0.0137
  C  C154  1  0.152760  0.600560  0.682380  1.0  -0.0704
  C  C155  1  0.977760  0.726360  0.475710  1.0  -0.3625
  C  C156  1  0.934620  0.711020  0.426840  1.0  -0.0113
  C  C157  1  0.836330  0.770330  0.415280  1.0  -0.0486
  C  C158  1  0.777610  0.845410  0.453360  1.0  -0.1049
  C  C159  1  0.819660  0.861260  0.502270  1.0  -0.0743
  C  C160  1  0.917910  0.803110  0.512340  1.0  -0.0082
  C  C161  1  0.717630  0.693230  0.158640  1.0  0.7079
  C  C162  1  0.628590  0.738790  0.121030  1.0  -0.2065
  C  C163  1  0.641580  0.759580  0.058230  1.0  -0.0017
  C  C164  1  0.558750  0.805150  0.024060  1.0  -0.0014
  C  C165  1  0.461910  0.830110  0.051180  1.0  -0.3145
  C  C166  1  0.451200  0.809400  0.114880  1.0  -0.0024
  C  C167  1  0.532500  0.765700  0.148770  1.0  -0.0732
  C  C168  1  0.269310  0.813910  0.027540  1.0  -0.3685
  C  C169  1  0.310150  0.710550  0.020920  1.0  -0.0317
  C  C170  1  0.253920  0.652720  0.037620  1.0  -0.0804
  C  C171  1  0.155020  0.695820  0.062740  1.0  -0.1067
  C  C172  1  0.092440  0.634040  0.080290  1.0  0.661
  C  C173  1  0.113570  0.797170  0.070570  1.0  -0.0589
  C  C174  1  0.170910  0.855310  0.052700  1.0  -0.0098
  C  C175  1  0.091350  0.328750  0.059130  1.0  0.7269
  C  C176  1  0.470790  0.927390  0.725560  1.0  0.6725
  C  C177  1  0.442880  0.914280  0.793270  1.0  -0.0996
  C  C178  1  0.460600  0.971200  0.833150  1.0  -0.0599
  C  C179  1  0.432360  0.962760  0.895600  1.0  -0.0154
  C  C180  1  0.388680  0.894480  0.921000  1.0  -0.3638
  C  C181  1  0.372430  0.837230  0.880680  1.0  -0.012
  C  C182  1  0.399440  0.847240  0.817620  1.0  -0.0699
  C  C183  1  0.273640  0.022240  0.024290  1.0  -0.3603
  C  C184  1  0.288980  0.065380  0.073160  1.0  -0.0095
  C  C185  1  0.229670  0.163670  0.084720  1.0  -0.0525
  C  C186  1  0.154590  0.222390  0.046640  1.0  -0.1132
  C  C187  1  0.138740  0.180340  0.997730  1.0  -0.0732
  C  C188  1  0.196890  0.082090  0.987660  1.0  -0.0091
  O  O189  1  0.683300  0.705100  0.714580  1.0  -0.4371
  O  O190  1  0.670260  0.804340  0.629620  1.0  -0.691
  O  O191  1  0.673770  0.006290  0.608000  1.0  -0.6537
  O  O192  1  0.544170  0.125570  0.565800  1.0  -0.685
  O  O193  1  0.353540  0.079260  0.612770  1.0  -0.638
  O  O194  1  0.879910  0.449030  0.189150  1.0  -0.7076
  O  O195  1  0.986200  0.514980  0.205420  1.0  -0.6738
  O  O196  1  0.392650  0.048570  0.514930  1.0  -0.8535
  O  O197  1  0.294900  0.316700  0.785420  1.0  -0.4499
  O  O198  1  0.195660  0.329740  0.870380  1.0  -0.688
  O  O199  1  0.993710  0.326230  0.892000  1.0  -0.651
  O  O200  1  0.874430  0.455830  0.934200  1.0  -0.6811
  O  O201  1  0.920740  0.646460  0.887230  1.0  -0.6334
  O  O202  1  0.550970  0.120090  0.310850  1.0  -0.714
  O  O203  1  0.485020  0.013800  0.294580  1.0  -0.6739
  O  O204  1  0.951430  0.607350  0.985070  1.0  -0.854
  O  O205  1  0.316700  0.294900  0.285420  1.0  -0.449
  O  O206  1  0.329740  0.195660  0.370380  1.0  -0.6903
  O  O207  1  0.326230  0.993710  0.392000  1.0  -0.651
  O  O208  1  0.455830  0.874430  0.434200  1.0  -0.6858
  O  O209  1  0.646460  0.920740  0.387230  1.0  -0.6354
  O  O210  1  0.120090  0.550970  0.810850  1.0  -0.7103
  O  O211  1  0.013800  0.485020  0.794580  1.0  -0.6775
  O  O212  1  0.607350  0.951430  0.485070  1.0  -0.8546
  O  O213  1  0.705100  0.683300  0.214580  1.0  -0.4388
  O  O214  1  0.804340  0.670260  0.129620  1.0  -0.689
  O  O215  1  0.006290  0.673770  0.108000  1.0  -0.6501
  O  O216  1  0.125570  0.544170  0.065800  1.0  -0.6836
  O  O217  1  0.079260  0.353540  0.112770  1.0  -0.6348
  O  O218  1  0.449030  0.879910  0.689150  1.0  -0.7127
  O  O219  1  0.514980  0.986200  0.705420  1.0  -0.6762
  O  O220  1  0.048570  0.392650  0.014930  1.0  -0.8565
