# generated using pymatgen
data_CuH6C6(NO)2
_symmetry_space_group_name_H-M   'P 1'
_cell_length_a   14.05710000
_cell_length_b   14.05710000
_cell_length_c   14.05710000
_cell_angle_alpha   108.35300000
_cell_angle_beta   110.03300000
_cell_angle_gamma   110.03300000
_symmetry_Int_Tables_number   1
_chemical_formula_structural   CuH6C6(NO)2
_chemical_formula_sum   'Cu4 H24 C24 N8 O8'
_cell_volume   2137.68530936
_cell_formula_units_Z   4
loop_
 _symmetry_equiv_pos_site_id
 _symmetry_equiv_pos_as_xyz
  1  'x, y, z'
loop_
 _atom_site_type_symbol
 _atom_site_label
 _atom_site_symmetry_multiplicity
 _atom_site_fract_x
 _atom_site_fract_y
 _atom_site_fract_z
 _atom_site_occupancy
 _atom_site_charge
  Cu  Cu1  1  0.898570  0.698840  0.800270  1.0  0.7251
  Cu  Cu2  1  0.101430  0.901700  0.800270  1.0  0.7189
  Cu  Cu3  1  0.601430  0.550270  0.151700  1.0  0.7217
  Cu  Cu4  1  0.398570  0.550270  0.948840  1.0  0.7199
  H  H5  1  0.657100  0.549400  0.586700  1.0  0.1083
  H  H6  1  0.675700  0.464700  0.499200  1.0  0.119
  H  H7  1  0.599500  0.518700  0.454800  1.0  0.101
  H  H8  1  0.342900  0.929600  0.892300  1.0  0.1091
  H  H9  1  0.324300  0.823500  0.789000  1.0  0.1184
  H  H10  1  0.400500  0.855300  0.919200  1.0  0.1021
  H  H11  1  0.537300  0.336700  0.179600  1.0  0.1076
  H  H12  1  0.534500  0.249200  0.073500  1.0  0.1165
  H  H13  1  0.436100  0.204800  0.105300  1.0  0.1027
  H  H14  1  0.462700  0.642300  0.799400  1.0  0.1062
  H  H15  1  0.465500  0.539000  0.714700  1.0  0.1172
  H  H16  1  0.563900  0.669200  0.768700  1.0  0.1009
  H  H17  1  0.037300  0.929600  0.586700  1.0  0.1089
  H  H18  1  0.034500  0.823500  0.499200  1.0  0.1171
  H  H19  1  0.936100  0.855300  0.454800  1.0  0.1011
  H  H20  1  0.962700  0.549400  0.892300  1.0  0.1072
  H  H21  1  0.965500  0.464700  0.789000  1.0  0.1183
  H  H22  1  0.063900  0.518700  0.919200  1.0  0.1036
  H  H23  1  0.842900  0.642300  0.179600  1.0  0.108
  H  H24  1  0.824300  0.539000  0.073500  1.0  0.1194
  H  H25  1  0.900500  0.669200  0.105300  1.0  0.1037
  H  H26  1  0.157100  0.336700  0.799400  1.0  0.1079
  H  H27  1  0.175700  0.249200  0.714700  1.0  0.1167
  H  H28  1  0.099500  0.204800  0.768700  1.0  0.1025
  C  C29  1  0.775100  0.634500  0.548000  1.0  0.3201
  C  C30  1  0.667400  0.532900  0.519700  1.0  -0.4163
  C  C31  1  0.224900  0.772900  0.859400  1.0  0.3271
  C  C32  1  0.332600  0.852300  0.865500  1.0  -0.4164
  C  C33  1  0.413500  0.298000  0.022900  1.0  0.3284
  C  C34  1  0.486800  0.269700  0.102300  1.0  -0.4175
  C  C35  1  0.586500  0.609400  0.884500  1.0  0.3346
  C  C36  1  0.513200  0.615500  0.782900  1.0  -0.4172
  C  C37  1  0.913500  0.772900  0.548000  1.0  0.3279
  C  C38  1  0.986800  0.852300  0.519700  1.0  -0.4181
  C  C39  1  0.086500  0.634500  0.859400  1.0  0.3337
  C  C40  1  0.013200  0.532900  0.865500  1.0  -0.4174
  C  C41  1  0.724900  0.609400  0.022900  1.0  0.3263
  C  C42  1  0.832600  0.615500  0.102300  1.0  -0.4175
  C  C43  1  0.275100  0.298000  0.884500  1.0  0.3196
  C  C44  1  0.167400  0.269700  0.782900  1.0  -0.4152
  C  C45  1  0.799200  0.677000  0.476200  1.0  -0.1859
  C  C46  1  0.724800  0.629400  0.354200  1.0  0.6315
  C  C47  1  0.200800  0.677000  0.877800  1.0  -0.1674
  C  C48  1  0.275200  0.629400  0.904600  1.0  0.6499
  C  C49  1  0.299200  0.226200  0.927000  1.0  -0.1878
  C  C50  1  0.224800  0.104200  0.879400  1.0  0.6369
  C  C51  1  0.700800  0.627800  0.927000  1.0  -0.1669
  C  C52  1  0.775200  0.654600  0.879400  1.0  0.6497
  N  N53  1  0.868200  0.702200  0.654200  1.0  -0.2481
  N  N54  1  0.131800  0.786000  0.834000  1.0  -0.2503
  N  N55  1  0.452000  0.404200  0.036000  1.0  -0.2465
  N  N56  1  0.548000  0.584000  0.952200  1.0  -0.2479
  N  N57  1  0.952000  0.786000  0.654200  1.0  -0.2434
  N  N58  1  0.048000  0.702200  0.834000  1.0  -0.2501
  N  N59  1  0.631800  0.584000  0.036000  1.0  -0.2485
  N  N60  1  0.368200  0.404200  0.952200  1.0  -0.2443
  O  O61  1  0.623000  0.539700  0.296500  1.0  -0.5874
  O  O62  1  0.377000  0.673500  0.916700  1.0  -0.5807
  O  O63  1  0.256800  0.046500  0.923500  1.0  -0.5902
  O  O64  1  0.743200  0.666667  0.789700  1.0  -0.5832
  O  O65  1  0.756800  0.673500  0.296500  1.0  -0.583
  O  O66  1  0.243200  0.539700  0.916700  1.0  -0.5786
  O  O67  1  0.877000  0.666667  0.923500  1.0  -0.5823
  O  O68  1  0.123000  0.046500  0.789700  1.0  -0.587
