# generated using pymatgen
data_CuH6C6(NO)2
_symmetry_space_group_name_H-M   'P 1'
_cell_length_a   13.81510000
_cell_length_b   13.81510000
_cell_length_c   13.81510000
_cell_angle_alpha   105.33500000
_cell_angle_beta   105.33500000
_cell_angle_gamma   118.10400000
_symmetry_Int_Tables_number   1
_chemical_formula_structural   CuH6C6(NO)2
_chemical_formula_sum   'Cu4 H24 C24 N8 O8'
_cell_volume   1994.70998577
_cell_formula_units_Z   4
loop_
 _symmetry_equiv_pos_site_id
 _symmetry_equiv_pos_as_xyz
  1  'x, y, z'
loop_
 _atom_site_type_symbol
 _atom_site_label
 _atom_site_symmetry_multiplicity
 _atom_site_fract_x
 _atom_site_fract_y
 _atom_site_fract_z
 _atom_site_occupancy
 _atom_site_charge
  Cu  Cu1  1  0.521170  0.620250  0.099080  1.0  0.6807
  Cu  Cu2  1  0.521170  0.422090  0.900920  1.0  0.6906
  Cu  Cu3  1  0.672090  0.271170  0.400920  1.0  0.6881
  Cu  Cu4  1  0.870250  0.271170  0.599080  1.0  0.6829
  H  H5  1  0.657700  0.592200  0.391500  1.0  0.1433
  H  H6  1  0.511900  0.515900  0.332600  1.0  0.1352
  H  H7  1  0.591900  0.637300  0.322600  1.0  0.1352
  H  H8  1  0.200700  0.266200  0.608500  1.0  0.1453
  H  H9  1  0.183300  0.179300  0.667400  1.0  0.1361
  H  H10  1  0.314700  0.269300  0.677400  1.0  0.1324
  H  H11  1  0.516200  0.407700  0.565500  1.0  0.1438
  H  H12  1  0.429300  0.261900  0.496000  1.0  0.1363
  H  H13  1  0.519300  0.341900  0.454600  1.0  0.1318
  H  H14  1  0.842200  0.950700  0.434500  1.0  0.1439
  H  H15  1  0.765900  0.933300  0.504000  1.0  0.136
  H  H16  1  0.887300  0.064700  0.545400  1.0  0.133
  H  H17  1  0.200700  0.592200  0.934500  1.0  0.1433
  H  H18  1  0.183300  0.515900  0.004000  1.0  0.136
  H  H19  1  0.314700  0.637300  0.045400  1.0  0.1335
  H  H20  1  0.657700  0.266200  0.065500  1.0  0.1465
  H  H21  1  0.511900  0.179300  0.996000  1.0  0.1364
  H  H22  1  0.591900  0.269300  0.954600  1.0  0.1318
  H  H23  1  0.842200  0.407700  0.891500  1.0  0.1425
  H  H24  1  0.765900  0.261900  0.832600  1.0  0.1363
  H  H25  1  0.887300  0.341900  0.822600  1.0  0.1338
  H  H26  1  0.516200  0.950700  0.108500  1.0  0.1458
  H  H27  1  0.429300  0.933300  0.167400  1.0  0.1349
  H  H28  1  0.519300  0.064700  0.177400  1.0  0.1326
  C  C29  1  0.579800  0.491100  0.222100  1.0  0.3407
  C  C30  1  0.585900  0.565600  0.326300  1.0  -0.4108
  C  C31  1  0.269000  0.357700  0.777900  1.0  0.3442
  C  C32  1  0.239300  0.259600  0.673700  1.0  -0.4077
  C  C33  1  0.607700  0.329800  0.588700  1.0  0.3434
  C  C34  1  0.509600  0.335900  0.520300  1.0  -0.4083
  C  C35  1  0.741100  0.019000  0.411300  1.0  0.3423
  C  C36  1  0.815600  0.989300  0.479700  1.0  -0.4074
  C  C37  1  0.269000  0.491100  0.911300  1.0  0.3405
  C  C38  1  0.239300  0.565600  0.979700  1.0  -0.4076
  C  C39  1  0.579800  0.357700  0.088700  1.0  0.3425
  C  C40  1  0.585900  0.259600  0.020300  1.0  -0.4079
  C  C41  1  0.741100  0.329800  0.722100  1.0  0.3376
  C  C42  1  0.815600  0.335900  0.826300  1.0  -0.4103
  C  C43  1  0.607700  0.019000  0.277900  1.0  0.3419
  C  C44  1  0.509600  0.989300  0.173700  1.0  -0.4073
  C  C45  1  0.604300  0.399800  0.204500  1.0  -0.4156
  C  C46  1  0.634500  0.355300  0.279200  1.0  0.6837
  C  C47  1  0.195300  0.399800  0.795500  1.0  -0.4252
  C  C48  1  0.076100  0.355300  0.720800  1.0  0.6813
  C  C49  1  0.649800  0.354300  0.704500  1.0  -0.4111
  C  C50  1  0.605300  0.384500  0.779200  1.0  0.6837
  C  C51  1  0.649800  0.945300  0.295500  1.0  -0.4274
  C  C52  1  0.605300  0.826100  0.220800  1.0  0.6811
  N  N53  1  0.548900  0.502300  0.127800  1.0  -0.2842
  N  N54  1  0.374500  0.421100  0.872200  1.0  -0.2811
  N  N55  1  0.671100  0.298900  0.546600  1.0  -0.284
  N  N56  1  0.752300  0.124500  0.453400  1.0  -0.2843
  N  N57  1  0.374500  0.502300  0.953400  1.0  -0.2826
  N  N58  1  0.548900  0.421100  0.046600  1.0  -0.2831
  N  N59  1  0.752300  0.298900  0.627800  1.0  -0.287
  N  N60  1  0.671100  0.124500  0.372200  1.0  -0.2808
  O  O61  1  0.649600  0.399600  0.380200  1.0  -0.5369
  O  O62  1  0.019400  0.269400  0.619800  1.0  -0.535
  O  O63  1  0.519400  0.399600  0.750000  1.0  -0.5364
  O  O64  1  0.649600  0.769400  0.250000  1.0  -0.5419
  O  O65  1  0.019400  0.399600  0.750000  1.0  -0.5422
  O  O66  1  0.649600  0.269400  0.250000  1.0  -0.536
  O  O67  1  0.649600  0.399600  0.880200  1.0  -0.5356
  O  O68  1  0.519400  0.769400  0.119800  1.0  -0.533
