# generated using pymatgen
data_Zn3H21C27N3O10
_symmetry_space_group_name_H-M   'P 1'
_cell_length_a   9.42720000
_cell_length_b   18.66200000
_cell_length_c   20.46100000
_cell_angle_alpha   90.00000000
_cell_angle_beta   90.00000000
_cell_angle_gamma   90.00000000
_symmetry_Int_Tables_number   1
_chemical_formula_structural   Zn3H21C27N3O10
_chemical_formula_sum   'Zn12 H84 C108 N12 O40'
_cell_volume   3599.71204535
_cell_formula_units_Z   4
loop_
 _symmetry_equiv_pos_site_id
 _symmetry_equiv_pos_as_xyz
  1  'x, y, z'
loop_
 _atom_site_type_symbol
 _atom_site_label
 _atom_site_symmetry_multiplicity
 _atom_site_fract_x
 _atom_site_fract_y
 _atom_site_fract_z
 _atom_site_occupancy
 _atom_site_charge
  Zn  Zn1  1  0.746520  0.365530  0.332620  1.0  1.0005
  Zn  Zn2  1  0.448650  0.272380  0.383520  1.0  1.1291
  Zn  Zn3  1  0.643990  0.677360  0.075960  1.0  0.9847
  Zn  Zn4  1  0.746520  0.634470  0.667380  1.0  0.999
  Zn  Zn5  1  0.448650  0.727620  0.616480  1.0  1.1295
  Zn  Zn6  1  0.643990  0.322640  0.924040  1.0  0.9845
  Zn  Zn7  1  0.246520  0.865530  0.167380  1.0  0.9987
  Zn  Zn8  1  0.948650  0.772380  0.116480  1.0  1.1293
  Zn  Zn9  1  0.143990  0.177360  0.424040  1.0  0.9844
  Zn  Zn10  1  0.246520  0.134470  0.832620  1.0  1.0009
  Zn  Zn11  1  0.948650  0.227620  0.883520  1.0  1.1293
  Zn  Zn12  1  0.143990  0.822640  0.575960  1.0  0.9849
  H  H13  1  0.690000  0.242500  0.363000  1.0  0.4391
  H  H14  1  0.180000  0.286000  0.379000  1.0  0.4496
  H  H15  1  0.188500  0.232600  0.071300  1.0  0.2918
  H  H16  1  0.530000  0.527700  0.230500  1.0  0.0929
  H  H17  1  0.153100  0.602000  0.172500  1.0  0.1044
  H  H18  1  0.044100  0.514100  0.234100  1.0  0.0983
  H  H19  1  0.174900  0.432900  0.293000  1.0  0.0988
  H  H20  1  0.238500  0.428600  0.426400  1.0  0.1068
  H  H21  1  0.716500  0.096500  0.456100  1.0  0.0884
  H  H22  1  0.995000  0.286200  0.266300  1.0  0.0879
  H  H23  1  0.040200  0.365800  0.088000  1.0  0.0838
  H  H24  1  0.853000  0.441600  0.107200  1.0  0.114
  H  H25  1  0.734900  0.435600  0.206100  1.0  0.0887
  H  H26  1  0.122700  0.219100  0.175500  1.0  0.1014
  H  H27  1  0.228800  0.279600  0.195000  1.0  0.0926
  H  H28  1  0.385200  0.257200  0.999600  1.0  0.0956
  H  H29  1  0.327100  0.375400  0.158900  1.0  0.0959
  H  H30  1  0.514300  0.444900  0.127900  1.0  0.1108
  H  H31  1  0.636700  0.417700  0.033700  1.0  0.079
  H  H32  1  0.690000  0.757500  0.637000  1.0  0.439
  H  H33  1  0.180000  0.714000  0.621000  1.0  0.4494
  H  H34  1  0.188500  0.767400  0.928700  1.0  0.2931
  H  H35  1  0.530000  0.472300  0.769500  1.0  0.0928
  H  H36  1  0.153100  0.398000  0.827500  1.0  0.1039
  H  H37  1  0.044100  0.485900  0.765900  1.0  0.0986
  H  H38  1  0.174900  0.567100  0.707000  1.0  0.0984
  H  H39  1  0.238500  0.571400  0.573600  1.0  0.1059
  H  H40  1  0.716500  0.903500  0.543900  1.0  0.0886
  H  H41  1  0.995000  0.713800  0.733700  1.0  0.0876
  H  H42  1  0.040200  0.634200  0.912000  1.0  0.083
  H  H43  1  0.853000  0.558400  0.892800  1.0  0.1146
  H  H44  1  0.734900  0.564400  0.793900  1.0  0.0889
  H  H45  1  0.122700  0.780900  0.824500  1.0  0.1057
  H  H46  1  0.228800  0.720400  0.805000  1.0  0.092
  H  H47  1  0.385200  0.742800  0.000400  1.0  0.0954
  H  H48  1  0.327100  0.624600  0.841100  1.0  0.0953
  H  H49  1  0.514300  0.555100  0.872100  1.0  0.111
  H  H50  1  0.636700  0.582300  0.966300  1.0  0.0786
  H  H51  1  0.190000  0.742500  0.137000  1.0  0.4386
  H  H52  1  0.680000  0.786000  0.121000  1.0  0.4494
  H  H53  1  0.688500  0.732600  0.428700  1.0  0.2931
  H  H54  1  0.030000  0.027700  0.269500  1.0  0.0934
  H  H55  1  0.653100  0.102000  0.327500  1.0  0.1047
  H  H56  1  0.544100  0.014100  0.265900  1.0  0.0983
  H  H57  1  0.674900  0.932900  0.207000  1.0  0.0986
  H  H58  1  0.738500  0.928600  0.073600  1.0  0.1064
  H  H59  1  0.216500  0.596500  0.043900  1.0  0.0884
  H  H60  1  0.495000  0.786200  0.233700  1.0  0.0874
  H  H61  1  0.540200  0.865800  0.412000  1.0  0.0835
  H  H62  1  0.353000  0.941600  0.392800  1.0  0.1145
  H  H63  1  0.234900  0.935600  0.293900  1.0  0.0892
  H  H64  1  0.622700  0.719100  0.324500  1.0  0.101
  H  H65  1  0.728800  0.779600  0.305000  1.0  0.0923
  H  H66  1  0.885200  0.757200  0.500400  1.0  0.0957
  H  H67  1  0.827100  0.875400  0.341100  1.0  0.0954
  H  H68  1  0.014300  0.944900  0.372100  1.0  0.1109
  H  H69  1  0.136700  0.917700  0.466300  1.0  0.0788
  H  H70  1  0.190000  0.257500  0.863000  1.0  0.4395
  H  H71  1  0.680000  0.214000  0.879000  1.0  0.4494
  H  H72  1  0.688500  0.267400  0.571300  1.0  0.2943
  H  H73  1  0.030000  0.972300  0.730500  1.0  0.0928
  H  H74  1  0.653100  0.898000  0.672500  1.0  0.1041
  H  H75  1  0.544100  0.985900  0.734100  1.0  0.0985
  H  H76  1  0.674900  0.067100  0.793000  1.0  0.0986
  H  H77  1  0.738500  0.071400  0.926400  1.0  0.1065
  H  H78  1  0.216500  0.403500  0.956100  1.0  0.0881
  H  H79  1  0.495000  0.213800  0.766300  1.0  0.0877
  H  H80  1  0.540200  0.134200  0.588000  1.0  0.0837
  H  H81  1  0.353000  0.058400  0.607200  1.0  0.114
  H  H82  1  0.234900  0.064400  0.706100  1.0  0.0888
  H  H83  1  0.622700  0.280900  0.675500  1.0  0.1055
  H  H84  1  0.728800  0.220400  0.695000  1.0  0.0927
  H  H85  1  0.885200  0.242800  0.499600  1.0  0.0954
  H  H86  1  0.827100  0.124600  0.658900  1.0  0.0956
  H  H87  1  0.014300  0.055100  0.627900  1.0  0.1114
  H  H88  1  0.136700  0.082300  0.533700  1.0  0.0788
  H  H89  1  0.866700  0.500000  0.500000  1.0  0.1103
  H  H90  1  0.357700  0.500000  0.500000  1.0  0.1002
  H  H91  1  0.366700  0.000000  0.000000  1.0  0.1102
  H  H92  1  0.857700  0.000000  0.000000  1.0  0.1002
  H  H93  1  0.349200  0.000000  0.500000  1.0  0.0905
  H  H94  1  0.839900  0.000000  0.500000  1.0  0.0944
  H  H95  1  0.849200  0.500000  0.000000  1.0  0.0905
  H  H96  1  0.339900  0.500000  0.000000  1.0  0.0944
  C  C97  1  0.457400  0.419600  0.305400  1.0  0.7089
  C  C98  1  0.368400  0.472600  0.268700  1.0  -0.1705
  C  C99  1  0.431500  0.524900  0.231300  1.0  -0.0162
  C  C100  1  0.353100  0.573600  0.194800  1.0  -0.1553
  C  C101  1  0.207500  0.569600  0.196200  1.0  -0.0318
  C  C102  1  0.142600  0.516800  0.233300  1.0  -0.118
  C  C103  1  0.220400  0.468300  0.268900  1.0  -0.0297
  C  C104  1  0.428300  0.626700  0.151700  1.0  0.6626
  C  C105  1  0.960600  0.413000  0.406600  1.0  0.6685
  C  C106  1  0.040300  0.457200  0.455400  1.0  -0.1553
  C  C107  1  0.188300  0.457100  0.455600  1.0  -0.054
  C  C108  1  0.435800  0.120500  0.447300  1.0  0.7027
  C  C109  1  0.520600  0.057900  0.473500  1.0  -0.1674
  C  C110  1  0.667200  0.057900  0.473600  1.0  -0.0177
  C  C111  1  0.964400  0.317000  0.233400  1.0  0.1347
  C  C112  1  0.034800  0.316800  0.173900  1.0  -0.0494
  C  C113  1  0.992700  0.364000  0.127900  1.0  -0.0185
  C  C114  1  0.881600  0.409100  0.139000  1.0  -0.1426
  C  C115  1  0.812100  0.405700  0.198400  1.0  0.15
  C  C116  1  0.155200  0.266800  0.164000  1.0  0.0302
  C  C117  1  0.412700  0.294700  0.026800  1.0  0.0766
  C  C118  1  0.334600  0.306500  0.083900  1.0  0.1534
  C  C119  1  0.376200  0.364400  0.120800  1.0  -0.1207
  C  C120  1  0.487400  0.405800  0.102600  1.0  -0.1256
  C  C121  1  0.560300  0.389300  0.046100  1.0  0.1173
  C  C122  1  0.457400  0.580400  0.694600  1.0  0.7083
  C  C123  1  0.368400  0.527400  0.731300  1.0  -0.1696
  C  C124  1  0.431500  0.475100  0.768700  1.0  -0.0141
  C  C125  1  0.353100  0.426400  0.805200  1.0  -0.1551
  C  C126  1  0.207500  0.430400  0.803800  1.0  -0.031
  C  C127  1  0.142600  0.483200  0.766700  1.0  -0.1188
  C  C128  1  0.220400  0.531700  0.731100  1.0  -0.0296
  C  C129  1  0.428300  0.373300  0.848300  1.0  0.6633
  C  C130  1  0.960600  0.587000  0.593400  1.0  0.6692
  C  C131  1  0.040300  0.542800  0.544600  1.0  -0.1551
  C  C132  1  0.188300  0.542900  0.544400  1.0  -0.0515
  C  C133  1  0.435800  0.879500  0.552700  1.0  0.7023
  C  C134  1  0.520600  0.942100  0.526500  1.0  -0.1686
  C  C135  1  0.667200  0.942100  0.526400  1.0  -0.017
  C  C136  1  0.964400  0.683000  0.766600  1.0  0.1345
  C  C137  1  0.034800  0.683200  0.826100  1.0  -0.0491
  C  C138  1  0.992700  0.636000  0.872100  1.0  -0.0175
  C  C139  1  0.881600  0.590900  0.861000  1.0  -0.1416
  C  C140  1  0.812100  0.594300  0.801600  1.0  0.1499
  C  C141  1  0.155200  0.733200  0.836000  1.0  0.0305
  C  C142  1  0.412700  0.705300  0.973200  1.0  0.0763
  C  C143  1  0.334600  0.693500  0.916100  1.0  0.1494
  C  C144  1  0.376200  0.635600  0.879200  1.0  -0.1198
  C  C145  1  0.487400  0.594200  0.897400  1.0  -0.1257
  C  C146  1  0.560300  0.610700  0.953900  1.0  0.1168
  C  C147  1  0.957400  0.919600  0.194600  1.0  0.7083
  C  C148  1  0.868400  0.972600  0.231300  1.0  -0.1701
  C  C149  1  0.931500  0.024900  0.268700  1.0  -0.0145
  C  C150  1  0.853100  0.073600  0.305200  1.0  -0.1553
  C  C151  1  0.707500  0.069600  0.303800  1.0  -0.0302
  C  C152  1  0.642600  0.016800  0.266700  1.0  -0.1178
  C  C153  1  0.720400  0.968300  0.231100  1.0  -0.0291
  C  C154  1  0.928300  0.126700  0.348300  1.0  0.6628
  C  C155  1  0.460600  0.913000  0.093400  1.0  0.6694
  C  C156  1  0.540300  0.957200  0.044600  1.0  -0.1553
  C  C157  1  0.688300  0.957100  0.044400  1.0  -0.0528
  C  C158  1  0.935800  0.620500  0.052700  1.0  0.7013
  C  C159  1  0.020600  0.557900  0.026500  1.0  -0.1682
  C  C160  1  0.167200  0.557900  0.026400  1.0  -0.0175
  C  C161  1  0.464400  0.817000  0.266600  1.0  0.1343
  C  C162  1  0.534800  0.816800  0.326100  1.0  -0.0493
  C  C163  1  0.492700  0.864000  0.372100  1.0  -0.0184
  C  C164  1  0.381600  0.909100  0.361000  1.0  -0.1421
  C  C165  1  0.312100  0.905700  0.301600  1.0  0.1498
  C  C166  1  0.655200  0.766800  0.336000  1.0  0.0284
  C  C167  1  0.912700  0.794700  0.473200  1.0  0.0776
  C  C168  1  0.834600  0.806500  0.416100  1.0  0.1533
  C  C169  1  0.876200  0.864400  0.379200  1.0  -0.1206
  C  C170  1  0.987400  0.905800  0.397400  1.0  -0.1257
  C  C171  1  0.060300  0.889300  0.453900  1.0  0.1171
  C  C172  1  0.957400  0.080400  0.805400  1.0  0.709
  C  C173  1  0.868400  0.027400  0.768700  1.0  -0.1719
  C  C174  1  0.931500  0.975100  0.731300  1.0  -0.0151
  C  C175  1  0.853100  0.926400  0.694800  1.0  -0.155
  C  C176  1  0.707500  0.930400  0.696200  1.0  -0.0307
  C  C177  1  0.642600  0.983200  0.733300  1.0  -0.1185
  C  C178  1  0.720400  0.031700  0.768900  1.0  -0.0295
  C  C179  1  0.928300  0.873300  0.651700  1.0  0.6629
  C  C180  1  0.460600  0.087000  0.906600  1.0  0.6683
  C  C181  1  0.540300  0.042800  0.955400  1.0  -0.1555
  C  C182  1  0.688300  0.042900  0.955600  1.0  -0.0523
  C  C183  1  0.935800  0.379500  0.947300  1.0  0.7015
  C  C184  1  0.020600  0.442100  0.973500  1.0  -0.1697
  C  C185  1  0.167200  0.442100  0.973600  1.0  -0.0168
  C  C186  1  0.464400  0.183000  0.733400  1.0  0.134
  C  C187  1  0.534800  0.183200  0.673900  1.0  -0.0492
  C  C188  1  0.492700  0.136000  0.627900  1.0  -0.0178
  C  C189  1  0.381600  0.090900  0.639000  1.0  -0.1424
  C  C190  1  0.312100  0.094300  0.698400  1.0  0.1498
  C  C191  1  0.655200  0.233200  0.664000  1.0  0.0318
  C  C192  1  0.912700  0.205300  0.526800  1.0  0.0765
  C  C193  1  0.834600  0.193500  0.583900  1.0  0.1495
  C  C194  1  0.876200  0.135600  0.620800  1.0  -0.1201
  C  C195  1  0.987400  0.094200  0.602600  1.0  -0.1256
  C  C196  1  0.060300  0.110700  0.546100  1.0  0.1171
  C  C197  1  0.965400  0.500000  0.500000  1.0  -0.007
  C  C198  1  0.259100  0.500000  0.500000  1.0  -0.1343
  C  C199  1  0.465400  0.000000  0.000000  1.0  -0.007
  C  C200  1  0.759100  0.000000  0.000000  1.0  -0.1343
  C  C201  1  0.447800  0.000000  0.500000  1.0  -0.0127
  C  C202  1  0.741300  0.000000  0.500000  1.0  -0.1131
  C  C203  1  0.947800  0.500000  0.000000  1.0  -0.0127
  C  C204  1  0.241300  0.500000  0.000000  1.0  -0.1131
  N  N205  1  0.854200  0.360000  0.245000  1.0  -0.347
  N  N206  1  0.220500  0.262500  0.099700  1.0  -0.4022
  N  N207  1  0.524500  0.334000  0.009000  1.0  -0.3301
  N  N208  1  0.854200  0.640000  0.755000  1.0  -0.3474
  N  N209  1  0.220500  0.737500  0.900300  1.0  -0.4019
  N  N210  1  0.524500  0.666000  0.991000  1.0  -0.329
  N  N211  1  0.354200  0.860000  0.255000  1.0  -0.3487
  N  N212  1  0.720500  0.762500  0.400300  1.0  -0.4025
  N  N213  1  0.024500  0.834000  0.491000  1.0  -0.3286
  N  N214  1  0.354200  0.140000  0.745000  1.0  -0.3469
  N  N215  1  0.720500  0.237500  0.599700  1.0  -0.4018
  N  N216  1  0.024500  0.166000  0.509000  1.0  -0.3294
  O  O217  1  0.589300  0.430000  0.304000  1.0  -0.6031
  O  O218  1  0.397800  0.369800  0.334800  1.0  -0.6257
  O  O219  1  0.558700  0.611900  0.139400  1.0  -0.6366
  O  O220  1  0.367900  0.678900  0.129400  1.0  -0.5779
  O  O221  1  0.833300  0.433200  0.394500  1.0  -0.6223
  O  O222  1  0.016000  0.360500  0.381000  1.0  -0.6047
  O  O223  1  0.501900  0.172500  0.426200  1.0  -0.6157
  O  O224  1  0.302600  0.113800  0.450100  1.0  -0.6035
  O  O225  1  0.652500  0.283940  0.363700  1.0  -0.9841
  O  O226  1  0.241500  0.259600  0.397100  1.0  -0.9811
  O  O227  1  0.589300  0.570000  0.696000  1.0  -0.6029
  O  O228  1  0.397800  0.630200  0.665200  1.0  -0.6259
  O  O229  1  0.558700  0.388100  0.860600  1.0  -0.636
  O  O230  1  0.367900  0.321100  0.870600  1.0  -0.5774
  O  O231  1  0.833300  0.566800  0.605500  1.0  -0.6221
  O  O232  1  0.016000  0.639500  0.619000  1.0  -0.6049
  O  O233  1  0.501900  0.827500  0.573800  1.0  -0.6158
  O  O234  1  0.302600  0.886200  0.549900  1.0  -0.6038
  O  O235  1  0.652500  0.716060  0.636300  1.0  -0.9842
  O  O236  1  0.241500  0.740400  0.602900  1.0  -0.9834
  O  O237  1  0.089300  0.930000  0.196000  1.0  -0.6029
  O  O238  1  0.897800  0.869800  0.165200  1.0  -0.6258
  O  O239  1  0.058700  0.111900  0.360600  1.0  -0.6365
  O  O240  1  0.867900  0.178900  0.370600  1.0  -0.5764
  O  O241  1  0.333333  0.933200  0.105500  1.0  -0.6221
  O  O242  1  0.516000  0.860500  0.119000  1.0  -0.6041
  O  O243  1  0.001900  0.672500  0.073800  1.0  -0.6149
  O  O244  1  0.802600  0.613800  0.049900  1.0  -0.6039
  O  O245  1  0.152500  0.783940  0.136300  1.0  -0.9839
  O  O246  1  0.741500  0.759600  0.102900  1.0  -0.9822
  O  O247  1  0.089300  0.070000  0.804000  1.0  -0.6025
  O  O248  1  0.897800  0.130200  0.834800  1.0  -0.6263
  O  O249  1  0.058700  0.888100  0.639400  1.0  -0.6362
  O  O250  1  0.867900  0.821100  0.629400  1.0  -0.5746
  O  O251  1  0.333333  0.066800  0.894500  1.0  -0.6221
  O  O252  1  0.516000  0.139500  0.881000  1.0  -0.6061
  O  O253  1  0.001900  0.327500  0.926200  1.0  -0.6161
  O  O254  1  0.802600  0.386200  0.950100  1.0  -0.6035
  O  O255  1  0.152500  0.216060  0.863700  1.0  -0.984
  O  O256  1  0.741500  0.240400  0.897100  1.0  -0.9823
