# generated using pymatgen
data_CdH20C27(N2O3)2
_symmetry_space_group_name_H-M   'P 1'
_cell_length_a   9.86330000
_cell_length_b   16.44090000
_cell_length_c   18.21870000
_cell_angle_alpha   90.00000000
_cell_angle_beta   94.19700000
_cell_angle_gamma   90.00000000
_symmetry_Int_Tables_number   1
_chemical_formula_structural   CdH20C27(N2O3)2
_chemical_formula_sum   'Cd4 H80 C108 N16 O24'
_cell_volume   2946.44953911
_cell_formula_units_Z   4
loop_
 _symmetry_equiv_pos_site_id
 _symmetry_equiv_pos_as_xyz
  1  'x, y, z'
loop_
 _atom_site_type_symbol
 _atom_site_label
 _atom_site_symmetry_multiplicity
 _atom_site_fract_x
 _atom_site_fract_y
 _atom_site_fract_z
 _atom_site_occupancy
 _atom_site_charge
  Cd  Cd1  1  0.100430  0.591730  0.996010  1.0  0.9619
  Cd  Cd2  1  0.899570  0.591730  0.503990  1.0  0.9629
  Cd  Cd3  1  0.899570  0.408270  0.003990  1.0  0.9629
  Cd  Cd4  1  0.100430  0.408270  0.496010  1.0  0.9618
  H  H5  1  0.891600  0.657000  0.137000  1.0  0.0886
  H  H6  1  0.794900  0.773900  0.192800  1.0  0.1131
  H  H7  1  0.477000  0.762800  0.043200  1.0  0.0895
  H  H8  1  0.578200  0.660900  0.987500  1.0  0.0585
  H  H9  1  0.689000  0.900300  0.198900  1.0  0.0648
  H  H10  1  0.643300  0.828300  0.248800  1.0  0.0887
  H  H11  1  0.488500  0.014000  0.164400  1.0  0.0634
  H  H12  1  0.369800  0.949800  0.157200  1.0  0.0578
  H  H13  1  0.127800  0.263200  0.221000  1.0  0.0799
  H  H14  1  0.242600  0.157100  0.276500  1.0  0.0858
  H  H15  1  0.395100  0.531000  0.929300  1.0  0.0847
  H  H16  1  0.229800  0.741900  0.883400  1.0  0.0917
  H  H17  1  0.415100  0.722900  0.801900  1.0  0.112
  H  H18  1  0.614400  0.608700  0.802300  1.0  0.0786
  H  H19  1  0.595700  0.534400  0.854100  1.0  0.0684
  H  H20  1  0.693200  0.501500  0.714300  1.0  0.0724
  H  H21  1  0.596100  0.429600  0.689900  1.0  0.0712
  H  H22  1  0.575000  0.306900  0.792800  1.0  0.0986
  H  H23  1  0.835300  0.485300  0.834700  1.0  0.0784
  H  H24  1  0.726000  0.271200  0.897500  1.0  0.0827
  H  H25  1  0.108400  0.657000  0.363000  1.0  0.0884
  H  H26  1  0.205100  0.773900  0.307200  1.0  0.1144
  H  H27  1  0.523000  0.762800  0.456800  1.0  0.0894
  H  H28  1  0.421800  0.660900  0.512500  1.0  0.0581
  H  H29  1  0.311000  0.900300  0.301100  1.0  0.0647
  H  H30  1  0.356700  0.828300  0.251200  1.0  0.0907
  H  H31  1  0.511500  0.014000  0.335600  1.0  0.0638
  H  H32  1  0.630200  0.949800  0.342800  1.0  0.0577
  H  H33  1  0.872200  0.263200  0.279000  1.0  0.0798
  H  H34  1  0.757400  0.157100  0.223500  1.0  0.086
  H  H35  1  0.604900  0.531000  0.570700  1.0  0.0844
  H  H36  1  0.770200  0.741900  0.616600  1.0  0.0916
  H  H37  1  0.584900  0.722900  0.698100  1.0  0.1122
  H  H38  1  0.385600  0.608700  0.697700  1.0  0.0794
  H  H39  1  0.404300  0.534400  0.645900  1.0  0.0687
  H  H40  1  0.306800  0.501500  0.785700  1.0  0.0711
  H  H41  1  0.403900  0.429600  0.810100  1.0  0.0721
  H  H42  1  0.425000  0.306900  0.707200  1.0  0.103
  H  H43  1  0.164700  0.485300  0.665300  1.0  0.0785
  H  H44  1  0.274000  0.271200  0.602500  1.0  0.0826
  H  H45  1  0.108400  0.343000  0.863000  1.0  0.0881
  H  H46  1  0.205100  0.226100  0.807200  1.0  0.115
  H  H47  1  0.523000  0.237200  0.956800  1.0  0.0893
  H  H48  1  0.421800  0.339100  0.012500  1.0  0.058
  H  H49  1  0.311000  0.099700  0.801100  1.0  0.0655
  H  H50  1  0.356700  0.171700  0.751200  1.0  0.0901
  H  H51  1  0.511500  0.986000  0.835600  1.0  0.0641
  H  H52  1  0.630200  0.050200  0.842800  1.0  0.0575
  H  H53  1  0.872200  0.736800  0.779000  1.0  0.0797
  H  H54  1  0.757400  0.842900  0.723500  1.0  0.0857
  H  H55  1  0.604900  0.469000  0.070700  1.0  0.0848
  H  H56  1  0.770200  0.258100  0.116600  1.0  0.0915
  H  H57  1  0.584900  0.277100  0.198100  1.0  0.111
  H  H58  1  0.385600  0.391300  0.197700  1.0  0.0787
  H  H59  1  0.404300  0.465600  0.145900  1.0  0.0689
  H  H60  1  0.306800  0.498500  0.285700  1.0  0.0717
  H  H61  1  0.403900  0.570400  0.310100  1.0  0.0716
  H  H62  1  0.425000  0.693100  0.207200  1.0  0.1008
  H  H63  1  0.164700  0.514700  0.165300  1.0  0.078
  H  H64  1  0.274000  0.728800  0.102500  1.0  0.0826
  H  H65  1  0.891600  0.343000  0.637000  1.0  0.0887
  H  H66  1  0.794900  0.226100  0.692800  1.0  0.114
  H  H67  1  0.477000  0.237200  0.543200  1.0  0.0893
  H  H68  1  0.578200  0.339100  0.487500  1.0  0.0581
  H  H69  1  0.689000  0.099700  0.698900  1.0  0.0637
  H  H70  1  0.643300  0.171700  0.748800  1.0  0.0873
  H  H71  1  0.488500  0.986000  0.664400  1.0  0.0634
  H  H72  1  0.369800  0.050200  0.657200  1.0  0.058
  H  H73  1  0.127800  0.736800  0.721000  1.0  0.08
  H  H74  1  0.242600  0.842900  0.776500  1.0  0.0856
  H  H75  1  0.395100  0.469000  0.429300  1.0  0.0847
  H  H76  1  0.229800  0.258100  0.383400  1.0  0.0915
  H  H77  1  0.415100  0.277100  0.301900  1.0  0.1106
  H  H78  1  0.614400  0.391300  0.302300  1.0  0.0788
  H  H79  1  0.595700  0.465600  0.354100  1.0  0.0687
  H  H80  1  0.693200  0.498500  0.214300  1.0  0.0716
  H  H81  1  0.596100  0.570400  0.189900  1.0  0.0716
  H  H82  1  0.575000  0.693100  0.292800  1.0  0.1027
  H  H83  1  0.835300  0.514700  0.334700  1.0  0.0782
  H  H84  1  0.726000  0.728800  0.397500  1.0  0.0824
  C  C85  1  0.787300  0.569200  0.023100  1.0  0.629
  C  C86  1  0.742300  0.645400  0.058700  1.0  -0.1122
  C  C87  1  0.809000  0.678500  0.118100  1.0  -0.0234
  C  C88  1  0.751000  0.748000  0.152300  1.0  -0.1924
  C  C89  1  0.621600  0.774900  0.120400  1.0  0.198
  C  C90  1  0.560600  0.743100  0.062400  1.0  -0.1745
  C  C91  1  0.620000  0.681600  0.030900  1.0  -0.0859
  C  C92  1  0.611400  0.869600  0.213600  1.0  0.0307
  C  C93  1  0.424400  0.983600  0.191600  1.0  0.0364
  C  C94  1  0.274800  0.098200  0.186700  1.0  0.0985
  C  C95  1  0.274900  0.105800  0.114000  1.0  0.0397
  C  C96  1  0.195200  0.170100  0.076700  1.0  0.2635
  C  C97  1  0.131400  0.224500  0.117800  1.0  0.2018
  C  C98  1  0.158100  0.221200  0.192200  1.0  -0.1691
  C  C99  1  0.227900  0.157900  0.225500  1.0  -0.1749
  C  C100  1  0.049600  0.290500  0.079900  1.0  0.6556
  C  C101  1  0.375900  0.581400  0.907800  1.0  0.1306
  C  C102  1  0.286400  0.696700  0.883000  1.0  0.0135
  C  C103  1  0.388300  0.686300  0.836900  1.0  -0.181
  C  C104  1  0.549000  0.569400  0.817600  1.0  -0.0933
  C  C105  1  0.624200  0.465100  0.730700  1.0  -0.0908
  C  C106  1  0.645700  0.338600  0.813900  1.0  -0.1469
  C  C107  1  0.788300  0.436500  0.837500  1.0  0.1275
  C  C108  1  0.727900  0.319700  0.871500  1.0  0.0253
  C  C109  1  0.819000  0.070800  0.377000  1.0  0.0991
  C  C110  1  0.912000  0.152000  0.401000  1.0  0.2984
  C  C111  1  0.212700  0.569200  0.476900  1.0  0.6291
  C  C112  1  0.257700  0.645400  0.441300  1.0  -0.1109
  C  C113  1  0.191000  0.678500  0.381900  1.0  -0.0232
  C  C114  1  0.249000  0.748000  0.347700  1.0  -0.1923
  C  C115  1  0.378400  0.774900  0.379600  1.0  0.1972
  C  C116  1  0.439400  0.743100  0.437600  1.0  -0.1712
  C  C117  1  0.380000  0.681600  0.469100  1.0  -0.087
  C  C118  1  0.388600  0.869600  0.286400  1.0  0.0301
  C  C119  1  0.575600  0.983600  0.308400  1.0  0.0389
  C  C120  1  0.725200  0.098200  0.313300  1.0  0.1004
  C  C121  1  0.725100  0.105800  0.386000  1.0  0.0312
  C  C122  1  0.804800  0.170100  0.423300  1.0  0.2561
  C  C123  1  0.868600  0.224500  0.382200  1.0  0.2042
  C  C124  1  0.841900  0.221200  0.307800  1.0  -0.1671
  C  C125  1  0.772100  0.157900  0.274500  1.0  -0.1767
  C  C126  1  0.950400  0.290500  0.420100  1.0  0.654
  C  C127  1  0.624100  0.581400  0.592200  1.0  0.1306
  C  C128  1  0.713600  0.696700  0.617000  1.0  0.013
  C  C129  1  0.611700  0.686300  0.663100  1.0  -0.1819
  C  C130  1  0.451000  0.569400  0.682400  1.0  -0.0952
  C  C131  1  0.375800  0.465100  0.769300  1.0  -0.0921
  C  C132  1  0.354300  0.338600  0.686100  1.0  -0.1506
  C  C133  1  0.211700  0.436500  0.662500  1.0  0.127
  C  C134  1  0.272100  0.319700  0.628500  1.0  0.0249
  C  C135  1  0.181000  0.070800  0.123000  1.0  0.1009
  C  C136  1  0.088000  0.152000  0.099000  1.0  0.2984
  C  C137  1  0.212700  0.430800  0.976900  1.0  0.628
  C  C138  1  0.257700  0.354600  0.941300  1.0  -0.1106
  C  C139  1  0.191000  0.321500  0.881900  1.0  -0.0237
  C  C140  1  0.249000  0.252000  0.847700  1.0  -0.1925
  C  C141  1  0.378400  0.225100  0.879600  1.0  0.1989
  C  C142  1  0.439400  0.256900  0.937600  1.0  -0.1724
  C  C143  1  0.380000  0.318400  0.969100  1.0  -0.0863
  C  C144  1  0.388600  0.130400  0.786400  1.0  0.0322
  C  C145  1  0.575600  0.016400  0.808400  1.0  0.0369
  C  C146  1  0.725200  0.901800  0.813300  1.0  0.1027
  C  C147  1  0.725100  0.894200  0.886000  1.0  0.0312
  C  C148  1  0.804800  0.829900  0.923300  1.0  0.2566
  C  C149  1  0.868600  0.775500  0.882200  1.0  0.2075
  C  C150  1  0.841900  0.778800  0.807800  1.0  -0.1676
  C  C151  1  0.772100  0.842100  0.774500  1.0  -0.1754
  C  C152  1  0.950400  0.709500  0.920100  1.0  0.6552
  C  C153  1  0.624100  0.418600  0.092200  1.0  0.1301
  C  C154  1  0.713600  0.303300  0.117000  1.0  0.0123
  C  C155  1  0.611700  0.313700  0.163100  1.0  -0.1802
  C  C156  1  0.451000  0.430600  0.182400  1.0  -0.0968
  C  C157  1  0.375800  0.534900  0.269300  1.0  -0.0927
  C  C158  1  0.354300  0.661400  0.186100  1.0  -0.1516
  C  C159  1  0.211700  0.563500  0.162500  1.0  0.127
  C  C160  1  0.272100  0.680300  0.128500  1.0  0.0255
  C  C161  1  0.181000  0.929200  0.623000  1.0  0.095
  C  C162  1  0.088000  0.848000  0.599000  1.0  0.2979
  C  C163  1  0.787300  0.430800  0.523100  1.0  0.6278
  C  C164  1  0.742300  0.354600  0.558700  1.0  -0.112
  C  C165  1  0.809000  0.321500  0.618100  1.0  -0.024
  C  C166  1  0.751000  0.252000  0.652300  1.0  -0.1924
  C  C167  1  0.621600  0.225100  0.620400  1.0  0.1989
  C  C168  1  0.560600  0.256900  0.562400  1.0  -0.1752
  C  C169  1  0.620000  0.318400  0.530900  1.0  -0.0849
  C  C170  1  0.611400  0.130400  0.713600  1.0  0.0301
  C  C171  1  0.424400  0.016400  0.691600  1.0  0.0391
  C  C172  1  0.274800  0.901800  0.686700  1.0  0.0971
  C  C173  1  0.274900  0.894200  0.614000  1.0  0.0371
  C  C174  1  0.195200  0.829900  0.576700  1.0  0.2634
  C  C175  1  0.131400  0.775500  0.617800  1.0  0.2048
  C  C176  1  0.158100  0.778800  0.692200  1.0  -0.1672
  C  C177  1  0.227900  0.842100  0.725500  1.0  -0.1762
  C  C178  1  0.049600  0.709500  0.579900  1.0  0.655
  C  C179  1  0.375900  0.418600  0.407800  1.0  0.1312
  C  C180  1  0.286400  0.303300  0.383000  1.0  0.0139
  C  C181  1  0.388300  0.313700  0.336900  1.0  -0.1802
  C  C182  1  0.549000  0.430600  0.317600  1.0  -0.0941
  C  C183  1  0.624200  0.534900  0.230700  1.0  -0.0907
  C  C184  1  0.645700  0.661400  0.313900  1.0  -0.1485
  C  C185  1  0.788300  0.563500  0.337500  1.0  0.1273
  C  C186  1  0.727900  0.680300  0.371500  1.0  0.0258
  C  C187  1  0.819000  0.929200  0.877000  1.0  0.0951
  C  C188  1  0.912000  0.848000  0.901000  1.0  0.2981
  C  C189  1  0.500000  0.930900  0.250000  1.0  -0.0385
  C  C190  1  0.500000  0.069100  0.750000  1.0  -0.0397
  C  C191  1  0.500000  0.516700  0.750000  1.0  -0.0162
  C  C192  1  0.500000  0.483300  0.250000  1.0  -0.0161
  N  N193  1  0.280000  0.631500  0.928000  1.0  -0.4149
  N  N194  1  0.441700  0.612800  0.852300  1.0  0.028
  N  N195  1  0.685200  0.415300  0.790800  1.0  -0.0341
  N  N196  1  0.816400  0.382000  0.887400  1.0  -0.3759
  N  N197  1  0.720000  0.631500  0.572000  1.0  -0.4155
  N  N198  1  0.558300  0.612800  0.647700  1.0  0.0291
  N  N199  1  0.314800  0.415300  0.709200  1.0  -0.0353
  N  N200  1  0.183600  0.382000  0.612600  1.0  -0.3764
  N  N201  1  0.720000  0.368500  0.072000  1.0  -0.4154
  N  N202  1  0.558300  0.387200  0.147700  1.0  0.0286
  N  N203  1  0.314800  0.584700  0.209200  1.0  -0.0349
  N  N204  1  0.183600  0.618000  0.112600  1.0  -0.3761
  N  N205  1  0.280000  0.368500  0.428000  1.0  -0.4147
  N  N206  1  0.441700  0.387200  0.352300  1.0  0.0281
  N  N207  1  0.685200  0.584700  0.290800  1.0  -0.0333
  N  N208  1  0.816400  0.618000  0.387400  1.0  -0.3763
  O  O209  1  0.710600  0.534900  0.975500  1.0  -0.6325
  O  O210  1  0.902200  0.539500  0.046200  1.0  -0.6824
  O  O211  1  0.545500  0.835800  0.155700  1.0  -0.2845
  O  O212  1  0.341800  0.036300  0.227900  1.0  -0.2999
  O  O213  1  0.043800  0.358600  0.111600  1.0  -0.6564
  O  O214  1  0.991900  0.278100  0.019400  1.0  -0.6104
  O  O215  1  0.289400  0.534900  0.524500  1.0  -0.63
  O  O216  1  0.097800  0.539500  0.453800  1.0  -0.6832
  O  O217  1  0.454500  0.835800  0.344300  1.0  -0.2843
  O  O218  1  0.658200  0.036300  0.272100  1.0  -0.2994
  O  O219  1  0.956200  0.358600  0.388400  1.0  -0.6543
  O  O220  1  0.008100  0.278100  0.480600  1.0  -0.6104
  O  O221  1  0.289400  0.465100  0.024500  1.0  -0.631
  O  O222  1  0.097800  0.460500  0.953800  1.0  -0.6831
  O  O223  1  0.454500  0.164200  0.844300  1.0  -0.283
  O  O224  1  0.658200  0.963700  0.772100  1.0  -0.2997
  O  O225  1  0.956200  0.641400  0.888400  1.0  -0.6557
  O  O226  1  0.008100  0.721900  0.980600  1.0  -0.6101
  O  O227  1  0.710600  0.465100  0.475500  1.0  -0.6324
  O  O228  1  0.902200  0.460500  0.546200  1.0  -0.6829
  O  O229  1  0.545500  0.164200  0.655700  1.0  -0.2869
  O  O230  1  0.341800  0.963700  0.727900  1.0  -0.2995
  O  O231  1  0.043800  0.641400  0.611600  1.0  -0.6536
  O  O232  1  0.991900  0.721900  0.519400  1.0  -0.6092
