# generated using pymatgen
data_CaHC3SO4
_symmetry_space_group_name_H-M   'P 1'
_cell_length_a   12.88000000
_cell_length_b   16.87000000
_cell_length_c   17.40700000
_cell_angle_alpha   90.00000000
_cell_angle_beta   90.00000000
_cell_angle_gamma   90.00000000
_symmetry_Int_Tables_number   1
_chemical_formula_structural   CaHC3SO4
_chemical_formula_sum   'Ca16 H16 C48 S16 O64'
_cell_volume   3782.29043920
_cell_formula_units_Z   16
loop_
 _symmetry_equiv_pos_site_id
 _symmetry_equiv_pos_as_xyz
  1  'x, y, z'
loop_
 _atom_site_type_symbol
 _atom_site_label
 _atom_site_symmetry_multiplicity
 _atom_site_fract_x
 _atom_site_fract_y
 _atom_site_fract_z
 _atom_site_occupancy
 _atom_site_charge
  Ca  Ca1  1  0.374300  0.531990  0.458450  1.0  1.564
  Ca  Ca2  1  0.261450  0.641850  0.635710  1.0  1.5707
  Ca  Ca3  1  0.125700  0.031990  0.041550  1.0  1.5637
  Ca  Ca4  1  0.238550  0.141850  0.864290  1.0  1.5716
  Ca  Ca5  1  0.625700  0.968010  0.458450  1.0  1.5641
  Ca  Ca6  1  0.738550  0.858150  0.635710  1.0  1.5701
  Ca  Ca7  1  0.874300  0.468010  0.041550  1.0  1.5645
  Ca  Ca8  1  0.761450  0.358150  0.864290  1.0  1.5697
  Ca  Ca9  1  0.625700  0.468010  0.541550  1.0  1.5639
  Ca  Ca10  1  0.738550  0.358150  0.364290  1.0  1.5703
  Ca  Ca11  1  0.874300  0.968010  0.958450  1.0  1.5643
  Ca  Ca12  1  0.761450  0.858150  0.135710  1.0  1.5696
  Ca  Ca13  1  0.374300  0.031990  0.541550  1.0  1.5645
  Ca  Ca14  1  0.261450  0.141850  0.364290  1.0  1.5709
  Ca  Ca15  1  0.125700  0.531990  0.958450  1.0  1.5634
  Ca  Ca16  1  0.238550  0.641850  0.135710  1.0  1.5712
  H  H17  1  0.296400  0.316000  0.694400  1.0  0.0905
  H  H18  1  0.403500  0.277800  0.442300  1.0  0.0866
  H  H19  1  0.203600  0.816000  0.805600  1.0  0.0908
  H  H20  1  0.096500  0.777800  0.057700  1.0  0.0871
  H  H21  1  0.703600  0.184000  0.694400  1.0  0.0905
  H  H22  1  0.596500  0.222200  0.442300  1.0  0.0869
  H  H23  1  0.796400  0.684000  0.805600  1.0  0.0909
  H  H24  1  0.903500  0.722200  0.057700  1.0  0.0872
  H  H25  1  0.703600  0.684000  0.305600  1.0  0.0906
  H  H26  1  0.596500  0.722200  0.557700  1.0  0.0871
  H  H27  1  0.796400  0.184000  0.194400  1.0  0.0906
  H  H28  1  0.903500  0.222200  0.942300  1.0  0.0865
  H  H29  1  0.296400  0.816000  0.305600  1.0  0.091
  H  H30  1  0.403500  0.777800  0.557700  1.0  0.0874
  H  H31  1  0.203600  0.316000  0.194400  1.0  0.0906
  H  H32  1  0.096500  0.277800  0.942300  1.0  0.087
  C  C33  1  0.372700  0.366820  0.606060  1.0  -0.3722
  C  C34  1  0.318700  0.307870  0.644160  1.0  0.0085
  C  C35  1  0.297700  0.236400  0.607360  1.0  -0.3533
  C  C36  1  0.329890  0.223030  0.529810  1.0  0.336
  C  C37  1  0.383350  0.284980  0.493100  1.0  -0.2447
  C  C38  1  0.407840  0.356470  0.528750  1.0  0.3138
  C  C39  1  0.127300  0.866820  0.893940  1.0  -0.3723
  C  C40  1  0.181300  0.807870  0.855840  1.0  0.0075
  C  C41  1  0.202300  0.736400  0.892640  1.0  -0.3524
  C  C42  1  0.170110  0.723030  0.970190  1.0  0.3365
  C  C43  1  0.116650  0.784980  0.006900  1.0  -0.2417
  C  C44  1  0.092160  0.856470  0.971250  1.0  0.3139
  C  C45  1  0.627300  0.133180  0.606060  1.0  -0.372
  C  C46  1  0.681300  0.192130  0.644160  1.0  0.0098
  C  C47  1  0.702300  0.263600  0.607360  1.0  -0.3527
  C  C48  1  0.670110  0.276970  0.529810  1.0  0.3366
  C  C49  1  0.616650  0.215020  0.493100  1.0  -0.2445
  C  C50  1  0.592160  0.143530  0.528750  1.0  0.3139
  C  C51  1  0.872700  0.633180  0.893940  1.0  -0.3724
  C  C52  1  0.818700  0.692130  0.855840  1.0  0.0093
  C  C53  1  0.797700  0.763600  0.892640  1.0  -0.3534
  C  C54  1  0.829890  0.776970  0.970190  1.0  0.3402
  C  C55  1  0.883350  0.715020  0.006900  1.0  -0.2289
  C  C56  1  0.907840  0.643530  0.971250  1.0  0.3139
  C  C57  1  0.627300  0.633180  0.393940  1.0  -0.3733
  C  C58  1  0.681300  0.692130  0.355840  1.0  0.0084
  C  C59  1  0.702300  0.763600  0.392640  1.0  -0.3526
  C  C60  1  0.670110  0.776970  0.470190  1.0  0.337
  C  C61  1  0.616650  0.715020  0.506900  1.0  -0.2433
  C  C62  1  0.592160  0.643530  0.471250  1.0  0.3145
  C  C63  1  0.872700  0.133180  0.106060  1.0  -0.3712
  C  C64  1  0.818700  0.192130  0.144160  1.0  0.0081
  C  C65  1  0.797700  0.263600  0.107360  1.0  -0.353
  C  C66  1  0.829890  0.276970  0.029810  1.0  0.3383
  C  C67  1  0.883350  0.215020  0.993100  1.0  -0.2303
  C  C68  1  0.907840  0.143530  0.028750  1.0  0.3135
  C  C69  1  0.372700  0.866820  0.393940  1.0  -0.3724
  C  C70  1  0.318700  0.807870  0.355840  1.0  0.0092
  C  C71  1  0.297700  0.736400  0.392640  1.0  -0.3537
  C  C72  1  0.329890  0.723030  0.470190  1.0  0.3358
  C  C73  1  0.383350  0.784980  0.506900  1.0  -0.244
  C  C74  1  0.407840  0.856470  0.471250  1.0  0.3131
  C  C75  1  0.127300  0.366820  0.106060  1.0  -0.3719
  C  C76  1  0.181300  0.307870  0.144160  1.0  0.008
  C  C77  1  0.202300  0.236400  0.107360  1.0  -0.3524
  C  C78  1  0.170110  0.223030  0.029810  1.0  0.3361
  C  C79  1  0.116650  0.284980  0.993100  1.0  -0.2448
  C  C80  1  0.092160  0.356470  0.028750  1.0  0.3142
  S  S81  1  0.395210  0.458340  0.649320  1.0  1.3621
  S  S82  1  0.222500  0.164190  0.652590  1.0  1.4033
  S  S83  1  0.104790  0.958340  0.850680  1.0  1.3592
  S  S84  1  0.277500  0.664190  0.847410  1.0  1.4027
  S  S85  1  0.604790  0.041660  0.649320  1.0  1.3606
  S  S86  1  0.777500  0.335810  0.652590  1.0  1.4041
  S  S87  1  0.895210  0.541660  0.850680  1.0  1.3627
  S  S88  1  0.722500  0.835810  0.847410  1.0  1.4034
  S  S89  1  0.604790  0.541660  0.350680  1.0  1.3612
  S  S90  1  0.777500  0.835810  0.347410  1.0  1.4015
  S  S91  1  0.895210  0.041660  0.149320  1.0  1.363
  S  S92  1  0.722500  0.335810  0.152590  1.0  1.4043
  S  S93  1  0.395210  0.958340  0.350680  1.0  1.363
  S  S94  1  0.222500  0.664190  0.347410  1.0  1.4019
  S  S95  1  0.104790  0.458340  0.149320  1.0  1.3614
  S  S96  1  0.277500  0.164190  0.152590  1.0  1.4032
  O  O97  1  0.340820  0.517070  0.600660  1.0  -0.8663
  O  O98  1  0.507250  0.472520  0.649310  1.0  -0.7468
  O  O99  1  0.351820  0.456190  0.726450  1.0  -0.6343
  O  O100  1  0.209970  0.188390  0.732660  1.0  -0.7207
  O  O101  1  0.122580  0.161350  0.612720  1.0  -0.6387
  O  O102  1  0.277200  0.088520  0.646440  1.0  -0.7216
  O  O103  1  0.460670  0.413100  0.492890  1.0  -0.732
  O  O104  1  0.310000  0.155880  0.494840  1.0  -0.7063
  O  O105  1  0.159180  0.017070  0.899340  1.0  -0.8656
  O  O106  1  0.992750  0.972520  0.850690  1.0  -0.7455
  O  O107  1  0.148180  0.956190  0.773550  1.0  -0.6322
  O  O108  1  0.290030  0.688390  0.767340  1.0  -0.7212
  O  O109  1  0.377420  0.661350  0.887280  1.0  -0.6452
  O  O110  1  0.222800  0.588520  0.853560  1.0  -0.7257
  O  O111  1  0.039330  0.913100  0.007110  1.0  -0.7314
  O  O112  1  0.190000  0.655880  0.005160  1.0  -0.7071
  O  O113  1  0.659180  0.982930  0.600660  1.0  -0.8677
  O  O114  1  0.492750  0.027480  0.649310  1.0  -0.746
  O  O115  1  0.648180  0.043810  0.726450  1.0  -0.6334
  O  O116  1  0.790030  0.311610  0.732660  1.0  -0.7231
  O  O117  1  0.877420  0.338650  0.612720  1.0  -0.6429
  O  O118  1  0.722800  0.411480  0.646440  1.0  -0.7236
  O  O119  1  0.539330  0.086900  0.492890  1.0  -0.7319
  O  O120  1  0.690000  0.344120  0.494840  1.0  -0.7066
  O  O121  1  0.840820  0.482930  0.899340  1.0  -0.8663
  O  O122  1  0.007250  0.527480  0.850690  1.0  -0.7504
  O  O123  1  0.851820  0.543810  0.773550  1.0  -0.6316
  O  O124  1  0.709970  0.811610  0.767340  1.0  -0.7243
  O  O125  1  0.622580  0.838650  0.887280  1.0  -0.6391
  O  O126  1  0.777200  0.911480  0.853560  1.0  -0.7205
  O  O127  1  0.960670  0.586900  0.007110  1.0  -0.729
  O  O128  1  0.810000  0.844120  0.005160  1.0  -0.7084
  O  O129  1  0.659180  0.482930  0.399340  1.0  -0.8667
  O  O130  1  0.492750  0.527480  0.350690  1.0  -0.7464
  O  O131  1  0.648180  0.543810  0.273550  1.0  -0.6327
  O  O132  1  0.790030  0.811610  0.267340  1.0  -0.724
  O  O133  1  0.877420  0.838650  0.387280  1.0  -0.6452
  O  O134  1  0.722800  0.911480  0.353560  1.0  -0.7228
  O  O135  1  0.539330  0.586900  0.507110  1.0  -0.7299
  O  O136  1  0.690000  0.844120  0.505160  1.0  -0.7085
  O  O137  1  0.840820  0.982930  0.100660  1.0  -0.8675
  O  O138  1  0.007250  0.027480  0.149310  1.0  -0.7482
  O  O139  1  0.851820  0.043810  0.226450  1.0  -0.6339
  O  O140  1  0.709970  0.311610  0.232660  1.0  -0.7247
  O  O141  1  0.622580  0.338650  0.112720  1.0  -0.6381
  O  O142  1  0.777200  0.411480  0.146440  1.0  -0.7205
  O  O143  1  0.960670  0.086900  0.992890  1.0  -0.7307
  O  O144  1  0.810000  0.344120  0.994840  1.0  -0.7076
  O  O145  1  0.340820  0.017070  0.399340  1.0  -0.8648
  O  O146  1  0.507250  0.972520  0.350690  1.0  -0.7492
  O  O147  1  0.351820  0.956190  0.273550  1.0  -0.6319
  O  O148  1  0.209970  0.688390  0.267340  1.0  -0.721
  O  O149  1  0.122580  0.661350  0.387280  1.0  -0.6394
  O  O150  1  0.277200  0.588520  0.353560  1.0  -0.7205
  O  O151  1  0.460670  0.913100  0.507110  1.0  -0.7308
  O  O152  1  0.310000  0.655880  0.505160  1.0  -0.7056
  O  O153  1  0.159180  0.517070  0.100660  1.0  -0.8665
  O  O154  1  0.992750  0.472520  0.149310  1.0  -0.7451
  O  O155  1  0.148180  0.456190  0.226450  1.0  -0.6331
  O  O156  1  0.290030  0.188390  0.232660  1.0  -0.7195
  O  O157  1  0.377420  0.161350  0.112720  1.0  -0.6435
  O  O158  1  0.222800  0.088520  0.146440  1.0  -0.7245
  O  O159  1  0.039330  0.413100  0.992890  1.0  -0.7328
  O  O160  1  0.190000  0.155880  0.994840  1.0  -0.707
