# generated using pymatgen
data_SrH2C3SO5
_symmetry_space_group_name_H-M   'P 1'
_cell_length_a   8.19840000
_cell_length_b   19.13400000
_cell_length_c   19.51900000
_cell_angle_alpha   90.00000000
_cell_angle_beta   90.00000000
_cell_angle_gamma   90.00000000
_symmetry_Int_Tables_number   1
_chemical_formula_structural   SrH2C3SO5
_chemical_formula_sum   'Sr16 H32 C48 S16 O80'
_cell_volume   3061.91011473
_cell_formula_units_Z   16
loop_
 _symmetry_equiv_pos_site_id
 _symmetry_equiv_pos_as_xyz
  1  'x, y, z'
loop_
 _atom_site_type_symbol
 _atom_site_label
 _atom_site_symmetry_multiplicity
 _atom_site_fract_x
 _atom_site_fract_y
 _atom_site_fract_z
 _atom_site_occupancy
 _atom_site_charge
  Sr  Sr1  1  0.259920  0.997000  0.497410  1.0  1.6264
  Sr  Sr2  1  0.239510  0.771400  0.901440  1.0  1.6375
  Sr  Sr3  1  0.740080  0.503000  0.997410  1.0  1.6266
  Sr  Sr4  1  0.760490  0.728600  0.401440  1.0  1.6377
  Sr  Sr5  1  0.759920  0.003000  0.002590  1.0  1.6265
  Sr  Sr6  1  0.739510  0.228600  0.598560  1.0  1.6375
  Sr  Sr7  1  0.240080  0.497000  0.502590  1.0  1.6266
  Sr  Sr8  1  0.260490  0.271400  0.098560  1.0  1.6377
  Sr  Sr9  1  0.740080  0.003000  0.502590  1.0  1.6272
  Sr  Sr10  1  0.760490  0.228600  0.098560  1.0  1.6376
  Sr  Sr11  1  0.259920  0.497000  0.002590  1.0  1.6271
  Sr  Sr12  1  0.239510  0.271400  0.598560  1.0  1.6376
  Sr  Sr13  1  0.240080  0.997000  0.997410  1.0  1.6273
  Sr  Sr14  1  0.260490  0.771400  0.401440  1.0  1.6377
  Sr  Sr15  1  0.759920  0.503000  0.497410  1.0  1.6271
  Sr  Sr16  1  0.739510  0.728600  0.901440  1.0  1.6375
  H  H17  1  0.007100  0.931500  0.583900  1.0  0.467
  H  H18  1  0.001700  0.893800  0.526700  1.0  0.4734
  H  H19  1  0.516900  0.846400  0.729800  1.0  0.1089
  H  H20  1  0.479100  0.085100  0.693500  1.0  0.1519
  H  H21  1  0.992900  0.568500  0.083900  1.0  0.4676
  H  H22  1  0.998300  0.606200  0.026700  1.0  0.4731
  H  H23  1  0.483100  0.653600  0.229800  1.0  0.1089
  H  H24  1  0.520900  0.414900  0.193500  1.0  0.1555
  H  H25  1  0.507100  0.068500  0.916100  1.0  0.4675
  H  H26  1  0.501700  0.106200  0.973300  1.0  0.4732
  H  H27  1  0.016900  0.153600  0.770200  1.0  0.109
  H  H28  1  0.979100  0.914900  0.806500  1.0  0.1581
  H  H29  1  0.492900  0.431500  0.416100  1.0  0.4669
  H  H30  1  0.498300  0.393800  0.473300  1.0  0.4737
  H  H31  1  0.983100  0.346400  0.270200  1.0  0.1091
  H  H32  1  0.020900  0.585100  0.306500  1.0  0.154
  H  H33  1  0.992900  0.068500  0.416100  1.0  0.4677
  H  H34  1  0.998300  0.106200  0.473300  1.0  0.4732
  H  H35  1  0.483100  0.153600  0.270200  1.0  0.109
  H  H36  1  0.520900  0.914900  0.306500  1.0  0.156
  H  H37  1  0.007100  0.431500  0.916100  1.0  0.4669
  H  H38  1  0.001700  0.393800  0.973300  1.0  0.4742
  H  H39  1  0.516900  0.346400  0.770200  1.0  0.109
  H  H40  1  0.479100  0.585100  0.806500  1.0  0.1521
  H  H41  1  0.492900  0.931500  0.083900  1.0  0.4672
  H  H42  1  0.498300  0.893800  0.026700  1.0  0.4734
  H  H43  1  0.983100  0.846400  0.229800  1.0  0.1089
  H  H44  1  0.020900  0.085100  0.193500  1.0  0.1535
  H  H45  1  0.507100  0.568500  0.583900  1.0  0.4673
  H  H46  1  0.501700  0.606200  0.526700  1.0  0.4735
  H  H47  1  0.016900  0.653600  0.729800  1.0  0.1089
  H  H48  1  0.979100  0.414900  0.693500  1.0  0.1577
  C  C49  1  0.497800  0.920700  0.657800  1.0  -0.3091
  C  C50  1  0.503700  0.894200  0.723100  1.0  0.0813
  C  C51  1  0.490100  0.938400  0.779300  1.0  -0.3452
  C  C52  1  0.484800  0.012500  0.768300  1.0  0.4445
  C  C53  1  0.484500  0.037100  0.700600  1.0  -0.3325
  C  C54  1  0.491800  0.994700  0.644600  1.0  0.461
  C  C55  1  0.502200  0.579300  0.157800  1.0  -0.3084
  C  C56  1  0.496300  0.605800  0.223100  1.0  0.0778
  C  C57  1  0.509900  0.561600  0.279300  1.0  -0.3448
  C  C58  1  0.515200  0.487500  0.268300  1.0  0.4446
  C  C59  1  0.515500  0.462900  0.200600  1.0  -0.328
  C  C60  1  0.508200  0.505300  0.144600  1.0  0.4619
  C  C61  1  0.997800  0.079300  0.842200  1.0  -0.3085
  C  C62  1  0.003700  0.105800  0.776900  1.0  0.0777
  C  C63  1  0.990100  0.061600  0.720700  1.0  -0.345
  C  C64  1  0.984800  0.987500  0.731700  1.0  0.4466
  C  C65  1  0.984500  0.962900  0.799400  1.0  -0.3276
  C  C66  1  0.991800  0.005300  0.855400  1.0  0.4613
  C  C67  1  0.002200  0.420700  0.342200  1.0  -0.3092
  C  C68  1  0.996300  0.394200  0.276900  1.0  0.081
  C  C69  1  0.009900  0.438400  0.220700  1.0  -0.3455
  C  C70  1  0.015200  0.512500  0.231700  1.0  0.4468
  C  C71  1  0.015500  0.537100  0.299400  1.0  -0.3327
  C  C72  1  0.008200  0.494700  0.355400  1.0  0.4612
  C  C73  1  0.502200  0.079300  0.342200  1.0  -0.3085
  C  C74  1  0.496300  0.105800  0.276900  1.0  0.0778
  C  C75  1  0.509900  0.061600  0.220700  1.0  -0.3452
  C  C76  1  0.515200  0.987500  0.231700  1.0  0.4466
  C  C77  1  0.515500  0.962900  0.299400  1.0  -0.3278
  C  C78  1  0.508200  0.005300  0.355400  1.0  0.4612
  C  C79  1  0.497800  0.420700  0.842200  1.0  -0.3093
  C  C80  1  0.503700  0.394200  0.776900  1.0  0.081
  C  C81  1  0.490100  0.438400  0.720700  1.0  -0.3453
  C  C82  1  0.484800  0.512500  0.731700  1.0  0.4468
  C  C83  1  0.484500  0.537100  0.799400  1.0  -0.3327
  C  C84  1  0.491800  0.494700  0.855400  1.0  0.4613
  C  C85  1  0.002200  0.920700  0.157800  1.0  -0.309
  C  C86  1  0.996300  0.894200  0.223100  1.0  0.0812
  C  C87  1  0.009900  0.938400  0.279300  1.0  -0.3455
  C  C88  1  0.015200  0.012500  0.268300  1.0  0.4443
  C  C89  1  0.015500  0.037100  0.200600  1.0  -0.3325
  C  C90  1  0.008200  0.994700  0.144600  1.0  0.461
  C  C91  1  0.997800  0.579300  0.657800  1.0  -0.3084
  C  C92  1  0.003700  0.605800  0.723100  1.0  0.0779
  C  C93  1  0.990100  0.561600  0.779300  1.0  -0.3445
  C  C94  1  0.984800  0.487500  0.768300  1.0  0.4447
  C  C95  1  0.984500  0.462900  0.700600  1.0  -0.3279
  C  C96  1  0.991800  0.505300  0.644600  1.0  0.4619
  S  S97  1  0.504080  0.865240  0.586800  1.0  1.4085
  S  S98  1  0.500190  0.904490  0.863310  1.0  1.4463
  S  S99  1  0.495920  0.634760  0.086800  1.0  1.4076
  S  S100  1  0.499810  0.595510  0.363310  1.0  1.4465
  S  S101  1  0.004080  0.134760  0.913200  1.0  1.4084
  S  S102  1  0.000190  0.095510  0.636690  1.0  1.4466
  S  S103  1  0.995920  0.365240  0.413200  1.0  1.4103
  S  S104  1  0.999810  0.404490  0.136690  1.0  1.4462
  S  S105  1  0.495920  0.134760  0.413200  1.0  1.4084
  S  S106  1  0.499810  0.095510  0.136690  1.0  1.4465
  S  S107  1  0.504080  0.365240  0.913200  1.0  1.4103
  S  S108  1  0.500190  0.404490  0.636690  1.0  1.4463
  S  S109  1  0.995920  0.865240  0.086800  1.0  1.4085
  S  S110  1  0.999810  0.904490  0.363310  1.0  1.4463
  S  S111  1  0.004080  0.634760  0.586800  1.0  1.4076
  S  S112  1  0.000190  0.595510  0.863310  1.0  1.4466
  O  O113  1  0.355600  0.878400  0.548200  1.0  -0.7619
  O  O114  1  0.004300  0.933700  0.541940  1.0  -0.9552
  O  O115  1  0.649900  0.882900  0.546400  1.0  -0.7343
  O  O116  1  0.956700  0.831500  0.901500  1.0  -0.7747
  O  O117  1  0.512900  0.793160  0.611500  1.0  -0.6495
  O  O118  1  0.519300  0.829200  0.856000  1.0  -0.8349
  O  O119  1  0.343900  0.922200  0.896800  1.0  -0.7799
  O  O120  1  0.639500  0.935800  0.898300  1.0  -0.6666
  O  O121  1  0.491900  0.019610  0.582140  1.0  -0.6892
  O  O122  1  0.468800  0.054200  0.821900  1.0  -0.4797
  O  O123  1  0.644400  0.621600  0.048200  1.0  -0.7626
  O  O124  1  0.995700  0.566300  0.041940  1.0  -0.955
  O  O125  1  0.350100  0.617100  0.046400  1.0  -0.7342
  O  O126  1  0.043300  0.668500  0.401500  1.0  -0.7737
  O  O127  1  0.487100  0.706840  0.111500  1.0  -0.6485
  O  O128  1  0.480700  0.670800  0.356000  1.0  -0.8349
  O  O129  1  0.656100  0.577800  0.396800  1.0  -0.7832
  O  O130  1  0.360500  0.564200  0.398300  1.0  -0.6662
  O  O131  1  0.508100  0.480390  0.082140  1.0  -0.6904
  O  O132  1  0.531200  0.445800  0.321900  1.0  -0.4803
  O  O133  1  0.855600  0.121600  0.951800  1.0  -0.7618
  O  O134  1  0.504300  0.066300  0.958060  1.0  -0.9547
  O  O135  1  0.149900  0.117100  0.953600  1.0  -0.7349
  O  O136  1  0.456700  0.168500  0.598500  1.0  -0.7736
  O  O137  1  0.012900  0.206840  0.888500  1.0  -0.6487
  O  O138  1  0.019300  0.170800  0.644000  1.0  -0.8347
  O  O139  1  0.843900  0.077800  0.603200  1.0  -0.7814
  O  O140  1  0.139500  0.064200  0.601700  1.0  -0.6664
  O  O141  1  0.991900  0.980390  0.917860  1.0  -0.6891
  O  O142  1  0.968800  0.945800  0.678100  1.0  -0.4795
  O  O143  1  0.144400  0.378400  0.451800  1.0  -0.7619
  O  O144  1  0.495700  0.433700  0.458060  1.0  -0.9544
  O  O145  1  0.850100  0.382900  0.453600  1.0  -0.7341
  O  O146  1  0.543300  0.331500  0.098500  1.0  -0.7745
  O  O147  1  0.987100  0.293160  0.388500  1.0  -0.6491
  O  O148  1  0.980700  0.329200  0.144000  1.0  -0.8352
  O  O149  1  0.156100  0.422200  0.103200  1.0  -0.7814
  O  O150  1  0.860500  0.435800  0.101700  1.0  -0.666
  O  O151  1  0.008100  0.519610  0.417860  1.0  -0.6893
  O  O152  1  0.031200  0.554200  0.178100  1.0  -0.4794
  O  O153  1  0.644400  0.121600  0.451800  1.0  -0.762
  O  O154  1  0.995700  0.066300  0.458060  1.0  -0.9547
  O  O155  1  0.350100  0.117100  0.453600  1.0  -0.7344
  O  O156  1  0.043300  0.168500  0.098500  1.0  -0.7737
  O  O157  1  0.487100  0.206840  0.388500  1.0  -0.6488
  O  O158  1  0.480700  0.170800  0.144000  1.0  -0.8349
  O  O159  1  0.656100  0.077800  0.103200  1.0  -0.7831
  O  O160  1  0.360500  0.064200  0.101700  1.0  -0.6659
  O  O161  1  0.508100  0.980390  0.417860  1.0  -0.6891
  O  O162  1  0.531200  0.945800  0.178100  1.0  -0.4796
  O  O163  1  0.355600  0.378400  0.951800  1.0  -0.7613
  O  O164  1  0.004300  0.433700  0.958060  1.0  -0.9544
  O  O165  1  0.649900  0.382900  0.953600  1.0  -0.7341
  O  O166  1  0.956700  0.331500  0.598500  1.0  -0.7746
  O  O167  1  0.512900  0.293160  0.888500  1.0  -0.6496
  O  O168  1  0.519300  0.329200  0.644000  1.0  -0.8349
  O  O169  1  0.343900  0.422200  0.603200  1.0  -0.7799
  O  O170  1  0.639500  0.435800  0.601700  1.0  -0.6663
  O  O171  1  0.491900  0.519610  0.917860  1.0  -0.6892
  O  O172  1  0.468800  0.554200  0.678100  1.0  -0.4795
  O  O173  1  0.144400  0.878400  0.048200  1.0  -0.7625
  O  O174  1  0.495700  0.933700  0.041940  1.0  -0.9552
  O  O175  1  0.850100  0.882900  0.046400  1.0  -0.7342
  O  O176  1  0.543300  0.831500  0.401500  1.0  -0.7747
  O  O177  1  0.987100  0.793160  0.111500  1.0  -0.6497
  O  O178  1  0.980700  0.829200  0.356000  1.0  -0.8352
  O  O179  1  0.156100  0.922200  0.396800  1.0  -0.7814
  O  O180  1  0.860500  0.935800  0.398300  1.0  -0.6662
  O  O181  1  0.008100  0.019610  0.082140  1.0  -0.6893
  O  O182  1  0.031200  0.054200  0.321900  1.0  -0.4797
  O  O183  1  0.855600  0.621600  0.548200  1.0  -0.7622
  O  O184  1  0.504300  0.566300  0.541940  1.0  -0.955
  O  O185  1  0.149900  0.617100  0.546400  1.0  -0.7348
  O  O186  1  0.456700  0.668500  0.901500  1.0  -0.7736
  O  O187  1  0.012900  0.706840  0.611500  1.0  -0.6491
  O  O188  1  0.019300  0.670800  0.856000  1.0  -0.8346
  O  O189  1  0.843900  0.577800  0.896800  1.0  -0.7816
  O  O190  1  0.139500  0.564200  0.898300  1.0  -0.6669
  O  O191  1  0.991900  0.480390  0.582140  1.0  -0.6903
  O  O192  1  0.968800  0.445800  0.821900  1.0  -0.4801
