# generated using pymatgen
data_Zn2H24C27(NO2)4
_symmetry_space_group_name_H-M   'P 1'
_cell_length_a   10.84710000
_cell_length_b   18.23200000
_cell_length_c   18.89400000
_cell_angle_alpha   108.71100000
_cell_angle_beta   90.00000000
_cell_angle_gamma   90.00000000
_symmetry_Int_Tables_number   1
_chemical_formula_structural   Zn2H24C27(NO2)4
_chemical_formula_sum   'Zn8 H96 C108 N16 O32'
_cell_volume   3539.07721318
_cell_formula_units_Z   4
loop_
 _symmetry_equiv_pos_site_id
 _symmetry_equiv_pos_as_xyz
  1  'x, y, z'
loop_
 _atom_site_type_symbol
 _atom_site_label
 _atom_site_symmetry_multiplicity
 _atom_site_fract_x
 _atom_site_fract_y
 _atom_site_fract_z
 _atom_site_occupancy
 _atom_site_charge
  Zn  Zn1  1  0.804820  0.683630  0.971980  1.0  0.953
  Zn  Zn2  1  0.806030  0.788740  0.874930  1.0  0.9524
  Zn  Zn3  1  0.695180  0.183630  0.471980  1.0  0.9528
  Zn  Zn4  1  0.693970  0.288740  0.374930  1.0  0.9526
  Zn  Zn5  1  0.304820  0.816370  0.528020  1.0  0.9524
  Zn  Zn6  1  0.306030  0.711260  0.625070  1.0  0.9522
  Zn  Zn7  1  0.195180  0.316370  0.028020  1.0  0.9524
  Zn  Zn8  1  0.193970  0.211260  0.125070  1.0  0.9525
  H  H9  1  0.492400  0.385400  0.317600  1.0  0.1129
  H  H10  1  0.538600  0.458900  0.231400  1.0  0.1345
  H  H11  1  0.914400  0.332500  0.310300  1.0  0.1528
  H  H12  1  0.927100  0.334800  0.226700  1.0  0.1268
  H  H13  1  0.950000  0.411700  0.295900  1.0  0.1205
  H  H14  1  0.830900  0.407600  0.148400  1.0  0.0745
  H  H15  1  0.724100  0.469100  0.152400  1.0  0.0863
  H  H16  1  0.830800  0.567100  0.234700  1.0  0.085
  H  H17  1  0.922600  0.508600  0.256000  1.0  0.0976
  H  H18  1  0.014000  0.475700  0.136000  1.0  0.0963
  H  H19  1  0.026600  0.566600  0.178900  1.0  0.0815
  H  H20  1  0.852600  0.432600  0.022200  1.0  0.1294
  H  H21  1  0.764400  0.504400  0.943000  1.0  0.1139
  H  H22  1  0.913300  0.727800  0.122400  1.0  0.1593
  H  H23  1  0.900400  0.691300  0.188600  1.0  0.1283
  H  H24  1  0.026200  0.681300  0.142200  1.0  0.1298
  H  H25  1  0.712300  0.995000  0.053100  1.0  0.1119
  H  H26  1  0.683500  0.103900  0.157500  1.0  0.096
  H  H27  1  0.757700  0.976400  0.292200  1.0  0.1032
  H  H28  1  0.791500  0.868700  0.187700  1.0  0.0997
  H  H29  1  0.201000  0.783000  0.842200  1.0  0.1084
  H  H30  1  0.414800  0.772100  0.837500  1.0  0.1028
  H  H31  1  0.410500  0.693100  0.013500  1.0  0.1103
  H  H32  1  0.196600  0.701900  0.018300  1.0  0.1027
  H  H33  1  0.007600  0.885400  0.817600  1.0  0.1128
  H  H34  1  0.961400  0.958900  0.731400  1.0  0.1342
  H  H35  1  0.585600  0.832500  0.810300  1.0  0.152
  H  H36  1  0.572900  0.834800  0.726700  1.0  0.1261
  H  H37  1  0.550000  0.911700  0.795900  1.0  0.121
  H  H38  1  0.669100  0.907600  0.648400  1.0  0.0753
  H  H39  1  0.775900  0.969100  0.652400  1.0  0.0872
  H  H40  1  0.669200  0.067100  0.734700  1.0  0.0845
  H  H41  1  0.577400  0.008600  0.756000  1.0  0.0978
  H  H42  1  0.486000  0.975700  0.636000  1.0  0.0956
  H  H43  1  0.473400  0.066600  0.678900  1.0  0.0821
  H  H44  1  0.647400  0.932600  0.522200  1.0  0.1297
  H  H45  1  0.735600  0.004400  0.443000  1.0  0.1125
  H  H46  1  0.586700  0.227800  0.622400  1.0  0.1593
  H  H47  1  0.599600  0.191300  0.688600  1.0  0.128
  H  H48  1  0.473800  0.181300  0.642200  1.0  0.1318
  H  H49  1  0.787700  0.495000  0.553100  1.0  0.1121
  H  H50  1  0.816500  0.603900  0.657500  1.0  0.0964
  H  H51  1  0.742300  0.476400  0.792200  1.0  0.1037
  H  H52  1  0.708500  0.368700  0.687700  1.0  0.0994
  H  H53  1  0.299000  0.283000  0.342200  1.0  0.1084
  H  H54  1  0.085200  0.272100  0.337500  1.0  0.1027
  H  H55  1  0.089500  0.193100  0.513500  1.0  0.1103
  H  H56  1  0.303400  0.201900  0.518300  1.0  0.1033
  H  H57  1  0.992400  0.114600  0.182400  1.0  0.1128
  H  H58  1  0.038600  0.041100  0.268600  1.0  0.1336
  H  H59  1  0.414400  0.167500  0.189700  1.0  0.1521
  H  H60  1  0.427100  0.165200  0.273300  1.0  0.1286
  H  H61  1  0.450000  0.088300  0.204100  1.0  0.12
  H  H62  1  0.330900  0.092400  0.351600  1.0  0.0748
  H  H63  1  0.224100  0.030900  0.347600  1.0  0.0869
  H  H64  1  0.330800  0.932900  0.265300  1.0  0.0833
  H  H65  1  0.422600  0.991400  0.244000  1.0  0.0999
  H  H66  1  0.514000  0.024300  0.364000  1.0  0.0964
  H  H67  1  0.526600  0.933400  0.321100  1.0  0.0811
  H  H68  1  0.352600  0.067400  0.477800  1.0  0.1299
  H  H69  1  0.264400  0.995600  0.557000  1.0  0.1138
  H  H70  1  0.413300  0.772200  0.377600  1.0  0.1586
  H  H71  1  0.400400  0.808700  0.311400  1.0  0.1267
  H  H72  1  0.526200  0.818700  0.357800  1.0  0.1305
  H  H73  1  0.212300  0.505000  0.446900  1.0  0.1119
  H  H74  1  0.183500  0.396100  0.342500  1.0  0.0967
  H  H75  1  0.257700  0.523600  0.207800  1.0  0.104
  H  H76  1  0.291500  0.631300  0.312300  1.0  0.0989
  H  H77  1  0.701000  0.717000  0.657800  1.0  0.1087
  H  H78  1  0.914800  0.727900  0.662500  1.0  0.103
  H  H79  1  0.910500  0.806900  0.486500  1.0  0.11
  H  H80  1  0.696600  0.798100  0.481700  1.0  0.1034
  H  H81  1  0.507600  0.614600  0.682400  1.0  0.1126
  H  H82  1  0.461400  0.541100  0.768600  1.0  0.1334
  H  H83  1  0.085600  0.667500  0.689700  1.0  0.1518
  H  H84  1  0.072900  0.665200  0.773300  1.0  0.1284
  H  H85  1  0.050000  0.588300  0.704100  1.0  0.1195
  H  H86  1  0.169100  0.592400  0.851600  1.0  0.0752
  H  H87  1  0.275900  0.530900  0.847600  1.0  0.0878
  H  H88  1  0.169200  0.432900  0.765300  1.0  0.084
  H  H89  1  0.077400  0.491400  0.744000  1.0  0.0999
  H  H90  1  0.986000  0.524300  0.864000  1.0  0.0964
  H  H91  1  0.973400  0.433400  0.821100  1.0  0.0815
  H  H92  1  0.147400  0.567400  0.977800  1.0  0.1294
  H  H93  1  0.235600  0.495600  0.057000  1.0  0.1124
  H  H94  1  0.086700  0.272200  0.877600  1.0  0.1591
  H  H95  1  0.099600  0.308700  0.811400  1.0  0.1279
  H  H96  1  0.973800  0.318700  0.857800  1.0  0.1324
  H  H97  1  0.287700  0.005000  0.946900  1.0  0.1121
  H  H98  1  0.316500  0.896100  0.842500  1.0  0.0966
  H  H99  1  0.242300  0.023600  0.707800  1.0  0.1038
  H  H100  1  0.208500  0.131300  0.812300  1.0  0.0992
  H  H101  1  0.799000  0.217000  0.157800  1.0  0.109
  H  H102  1  0.585200  0.227900  0.162500  1.0  0.1029
  H  H103  1  0.589500  0.306900  0.986500  1.0  0.1101
  H  H104  1  0.803400  0.298100  0.981700  1.0  0.103
  C  C105  1  0.571400  0.392000  0.298900  1.0  0.0357
  C  C106  1  0.596500  0.432000  0.251700  1.0  -0.1656
  C  C107  1  0.768700  0.384000  0.277700  1.0  0.3428
  C  C108  1  0.901300  0.364000  0.277600  1.0  -0.4229
  C  C109  1  0.786000  0.452300  0.182500  1.0  -0.0155
  C  C110  1  0.876600  0.517800  0.214400  1.0  -0.1859
  C  C111  1  0.967100  0.524700  0.155400  1.0  -0.0306
  C  C112  1  0.854300  0.487100  0.032200  1.0  -0.1625
  C  C113  1  0.806400  0.526600  0.989100  1.0  0.0179
  C  C114  1  0.888600  0.610700  0.084900  1.0  0.3401
  C  C115  1  0.936300  0.684100  0.139200  1.0  -0.4277
  C  C116  1  0.780600  0.852700  0.042200  1.0  0.6992
  C  C117  1  0.757400  0.921300  0.110000  1.0  -0.1236
  C  C118  1  0.723300  0.991300  0.101700  1.0  -0.0482
  C  C119  1  0.705000  0.055800  0.163800  1.0  -0.0661
  C  C120  1  0.717800  0.050800  0.234700  1.0  -0.1278
  C  C121  1  0.698100  0.121700  0.302000  1.0  0.6736
  C  C122  1  0.749600  0.980500  0.243500  1.0  -0.0719
  C  C123  1  0.769300  0.916600  0.181400  1.0  -0.0572
  C  C124  1  0.040400  0.743600  0.929400  1.0  0.6788
  C  C125  1  0.177900  0.742800  0.930200  1.0  -0.1254
  C  C126  1  0.243300  0.764200  0.876900  1.0  -0.0839
  C  C127  1  0.370100  0.758100  0.874400  1.0  -0.0751
  C  C128  1  0.432600  0.731800  0.925200  1.0  -0.1203
  C  C129  1  0.570800  0.727300  0.923300  1.0  0.674
  C  C130  1  0.367600  0.711100  0.978500  1.0  -0.0606
  C  C131  1  0.240800  0.716300  0.981400  1.0  -0.076
  C  C132  1  0.928600  0.892000  0.798900  1.0  0.036
  C  C133  1  0.903500  0.932000  0.751700  1.0  -0.1614
  C  C134  1  0.731300  0.884000  0.777700  1.0  0.344
  C  C135  1  0.598700  0.864000  0.777600  1.0  -0.4226
  C  C136  1  0.714000  0.952300  0.682500  1.0  -0.0172
  C  C137  1  0.623400  0.017800  0.714400  1.0  -0.184
  C  C138  1  0.532900  0.024700  0.655400  1.0  -0.0319
  C  C139  1  0.645700  0.987100  0.532200  1.0  -0.1596
  C  C140  1  0.693600  0.026600  0.489100  1.0  0.0179
  C  C141  1  0.611400  0.110700  0.584900  1.0  0.3395
  C  C142  1  0.563700  0.184100  0.639200  1.0  -0.4288
  C  C143  1  0.719400  0.352700  0.542200  1.0  0.6993
  C  C144  1  0.742600  0.421300  0.610000  1.0  -0.1224
  C  C145  1  0.776700  0.491300  0.601700  1.0  -0.0488
  C  C146  1  0.795000  0.555800  0.663800  1.0  -0.0655
  C  C147  1  0.782200  0.550800  0.734700  1.0  -0.1279
  C  C148  1  0.801900  0.621700  0.802000  1.0  0.6741
  C  C149  1  0.750400  0.480500  0.743500  1.0  -0.0712
  C  C150  1  0.730700  0.416600  0.681400  1.0  -0.0569
  C  C151  1  0.459600  0.243600  0.429400  1.0  0.6799
  C  C152  1  0.322100  0.242800  0.430200  1.0  -0.1251
  C  C153  1  0.256700  0.264200  0.376900  1.0  -0.0835
  C  C154  1  0.129900  0.258100  0.374400  1.0  -0.075
  C  C155  1  0.067400  0.231800  0.425200  1.0  -0.1213
  C  C156  1  0.929200  0.227300  0.423300  1.0  0.6729
  C  C157  1  0.132400  0.211100  0.478500  1.0  -0.0617
  C  C158  1  0.259200  0.216300  0.481400  1.0  -0.078
  C  C159  1  0.071400  0.108000  0.201100  1.0  0.0343
  C  C160  1  0.096500  0.068000  0.248300  1.0  -0.1614
  C  C161  1  0.268700  0.116000  0.222300  1.0  0.3409
  C  C162  1  0.401300  0.136000  0.222400  1.0  -0.4235
  C  C163  1  0.286000  0.047700  0.317500  1.0  -0.0165
  C  C164  1  0.376600  0.982200  0.285600  1.0  -0.1737
  C  C165  1  0.467100  0.975300  0.344600  1.0  -0.0304
  C  C166  1  0.354300  0.012900  0.467800  1.0  -0.1603
  C  C167  1  0.306400  0.973400  0.510900  1.0  0.019
  C  C168  1  0.388600  0.889300  0.415100  1.0  0.3417
  C  C169  1  0.436300  0.815900  0.360800  1.0  -0.4276
  C  C170  1  0.280600  0.647300  0.457800  1.0  0.699
  C  C171  1  0.257400  0.578700  0.390000  1.0  -0.1225
  C  C172  1  0.223300  0.508700  0.398300  1.0  -0.0492
  C  C173  1  0.205000  0.444200  0.336200  1.0  -0.066
  C  C174  1  0.217800  0.449200  0.265300  1.0  -0.1277
  C  C175  1  0.198100  0.378300  0.198000  1.0  0.6735
  C  C176  1  0.249600  0.519500  0.256500  1.0  -0.0709
  C  C177  1  0.269300  0.583400  0.318600  1.0  -0.0551
  C  C178  1  0.540400  0.756400  0.570600  1.0  0.6798
  C  C179  1  0.677900  0.757200  0.569800  1.0  -0.1243
  C  C180  1  0.743300  0.735800  0.623100  1.0  -0.0789
  C  C181  1  0.870100  0.741900  0.625600  1.0  -0.0814
  C  C182  1  0.932600  0.768200  0.574800  1.0  -0.1213
  C  C183  1  0.070800  0.772700  0.576700  1.0  0.6744
  C  C184  1  0.867600  0.788900  0.521500  1.0  -0.0611
  C  C185  1  0.740800  0.783700  0.518600  1.0  -0.0768
  C  C186  1  0.428600  0.608000  0.701100  1.0  0.0341
  C  C187  1  0.403500  0.568000  0.748300  1.0  -0.1555
  C  C188  1  0.231300  0.616000  0.722300  1.0  0.3422
  C  C189  1  0.098700  0.636000  0.722400  1.0  -0.4223
  C  C190  1  0.214000  0.547700  0.817500  1.0  -0.0171
  C  C191  1  0.123400  0.482200  0.785600  1.0  -0.1705
  C  C192  1  0.032900  0.475300  0.844600  1.0  -0.0314
  C  C193  1  0.145700  0.512900  0.967800  1.0  -0.1556
  C  C194  1  0.193600  0.473400  0.010900  1.0  0.0187
  C  C195  1  0.111400  0.389300  0.915100  1.0  0.3402
  C  C196  1  0.063700  0.315900  0.860800  1.0  -0.4282
  C  C197  1  0.219400  0.147300  0.957800  1.0  0.6992
  C  C198  1  0.242600  0.078700  0.890000  1.0  -0.1216
  C  C199  1  0.276700  0.008700  0.898300  1.0  -0.0495
  C  C200  1  0.295000  0.944200  0.836200  1.0  -0.0653
  C  C201  1  0.282200  0.949200  0.765300  1.0  -0.1281
  C  C202  1  0.301900  0.878300  0.698000  1.0  0.6742
  C  C203  1  0.250400  0.019500  0.756500  1.0  -0.0701
  C  C204  1  0.230700  0.083400  0.818600  1.0  -0.0556
  C  C205  1  0.959600  0.256400  0.070600  1.0  0.6804
  C  C206  1  0.822100  0.257200  0.069800  1.0  -0.1235
  C  C207  1  0.756700  0.235800  0.123100  1.0  -0.0796
  C  C208  1  0.629900  0.241900  0.125600  1.0  -0.0809
  C  C209  1  0.567400  0.268200  0.074800  1.0  -0.1223
  C  C210  1  0.429200  0.272700  0.076700  1.0  0.6736
  C  C211  1  0.632400  0.288900  0.021500  1.0  -0.059
  C  C212  1  0.759200  0.283700  0.018600  1.0  -0.0766
  N  N213  1  0.681700  0.362150  0.315290  1.0  -0.4133
  N  N214  1  0.721300  0.426700  0.238500  1.0  -0.006
  N  N215  1  0.906000  0.541100  0.093100  1.0  -0.0047
  N  N216  1  0.828400  0.604100  0.022880  1.0  -0.4029
  N  N217  1  0.818300  0.862150  0.815290  1.0  -0.413
  N  N218  1  0.778700  0.926700  0.738500  1.0  -0.005
  N  N219  1  0.594000  0.041100  0.593100  1.0  -0.0043
  N  N220  1  0.671600  0.104100  0.522880  1.0  -0.4026
  N  N221  1  0.181700  0.137850  0.184710  1.0  -0.4127
  N  N222  1  0.221300  0.073300  0.261500  1.0  -0.0044
  N  N223  1  0.406000  0.958900  0.406900  1.0  -0.0044
  N  N224  1  0.328400  0.895900  0.477120  1.0  -0.4039
  N  N225  1  0.318300  0.637850  0.684710  1.0  -0.4127
  N  N226  1  0.278700  0.573300  0.761500  1.0  -0.0041
  N  N227  1  0.094000  0.458900  0.906900  1.0  -0.0039
  N  N228  1  0.171600  0.395900  0.977120  1.0  -0.4032
  O  O229  1  0.795100  0.789220  0.052100  1.0  -0.6125
  O  O230  1  0.784500  0.864710  0.981400  1.0  -0.6012
  O  O231  1  0.685500  0.184930  0.290770  1.0  -0.5761
  O  O232  1  0.696600  0.111300  0.363890  1.0  -0.608
  O  O233  1  0.988600  0.782420  0.894670  1.0  -0.5788
  O  O234  1  0.987600  0.702900  0.962500  1.0  -0.6079
  O  O235  1  0.626500  0.759690  0.884130  1.0  -0.5959
  O  O236  1  0.621200  0.692400  0.962800  1.0  -0.5938
  O  O237  1  0.704900  0.289220  0.552100  1.0  -0.6124
  O  O238  1  0.715500  0.364710  0.481400  1.0  -0.6011
  O  O239  1  0.814500  0.684930  0.790770  1.0  -0.5762
  O  O240  1  0.803400  0.611300  0.863890  1.0  -0.6087
  O  O241  1  0.511400  0.282420  0.394670  1.0  -0.5792
  O  O242  1  0.512400  0.202900  0.462500  1.0  -0.6079
  O  O243  1  0.873500  0.259690  0.384130  1.0  -0.5954
  O  O244  1  0.878800  0.192400  0.462800  1.0  -0.593
  O  O245  1  0.295100  0.710780  0.447900  1.0  -0.6124
  O  O246  1  0.284500  0.635290  0.518600  1.0  -0.6015
  O  O247  1  0.185500  0.315070  0.209230  1.0  -0.5761
  O  O248  1  0.196600  0.388700  0.136110  1.0  -0.6093
  O  O249  1  0.488600  0.717580  0.605330  1.0  -0.5792
  O  O250  1  0.487600  0.797100  0.537500  1.0  -0.6095
  O  O251  1  0.126500  0.740310  0.615870  1.0  -0.5964
  O  O252  1  0.121200  0.807600  0.537200  1.0  -0.5936
  O  O253  1  0.204900  0.210780  0.947900  1.0  -0.6124
  O  O254  1  0.215500  0.135290  0.018600  1.0  -0.6014
  O  O255  1  0.314500  0.815070  0.709230  1.0  -0.5761
  O  O256  1  0.303400  0.888700  0.636110  1.0  -0.6105
  O  O257  1  0.011400  0.217580  0.105330  1.0  -0.5783
  O  O258  1  0.012400  0.297100  0.037500  1.0  -0.6092
  O  O259  1  0.373500  0.240310  0.115870  1.0  -0.596
  O  O260  1  0.378800  0.307600  0.037200  1.0  -0.5936
