# generated using pymatgen
data_BaHC3SO4
_symmetry_space_group_name_H-M   'P 1'
_cell_length_a   5.87670000
_cell_length_b   7.50120000
_cell_length_c   16.47600000
_cell_angle_alpha   90.00000000
_cell_angle_beta   90.00000000
_cell_angle_gamma   94.47000000
_symmetry_Int_Tables_number   1
_chemical_formula_structural   BaHC3SO4
_chemical_formula_sum   'Ba4 H4 C12 S4 O16'
_cell_volume   724.09080581
_cell_formula_units_Z   4
loop_
 _symmetry_equiv_pos_site_id
 _symmetry_equiv_pos_as_xyz
  1  'x, y, z'
loop_
 _atom_site_type_symbol
 _atom_site_label
 _atom_site_symmetry_multiplicity
 _atom_site_fract_x
 _atom_site_fract_y
 _atom_site_fract_z
 _atom_site_occupancy
 _atom_site_charge
  Ba  Ba1  1  0.819640  0.713040  0.532800  1.0  1.6925
  Ba  Ba2  1  0.180360  0.286960  0.032800  1.0  1.6927
  Ba  Ba3  1  0.180360  0.286960  0.467200  1.0  1.6922
  Ba  Ba4  1  0.819640  0.713040  0.967200  1.0  1.6923
  H  H5  1  0.456700  0.847500  0.250000  1.0  0.0989
  H  H6  1  0.791900  0.473800  0.250000  1.0  0.1562
  H  H7  1  0.543300  0.152500  0.750000  1.0  0.0992
  H  H8  1  0.208100  0.526200  0.750000  1.0  0.1566
  C  C9  1  0.226100  0.717100  0.323160  1.0  -0.4849
  C  C10  1  0.019300  0.602300  0.324900  1.0  0.5031
  C  C11  1  0.773900  0.282900  0.823160  1.0  -0.4836
  C  C12  1  0.980700  0.397700  0.824900  1.0  0.4991
  C  C13  1  0.773900  0.282900  0.676840  1.0  -0.4863
  C  C14  1  0.980700  0.397700  0.675100  1.0  0.5081
  C  C15  1  0.226100  0.717100  0.176840  1.0  -0.4875
  C  C16  1  0.019300  0.602300  0.175100  1.0  0.5115
  C  C17  1  0.323400  0.772100  0.250000  1.0  0.0779
  C  C18  1  0.925300  0.549200  0.250000  1.0  -0.4339
  C  C19  1  0.676600  0.227900  0.750000  1.0  0.0827
  C  C20  1  0.074700  0.450800  0.750000  1.0  -0.4315
  S  S21  1  0.338760  0.799120  0.414890  1.0  1.4667
  S  S22  1  0.661240  0.200880  0.914890  1.0  1.4672
  S  S23  1  0.661240  0.200880  0.585110  1.0  1.4664
  S  S24  1  0.338760  0.799120  0.085110  1.0  1.4667
  O  O25  1  0.557300  0.898300  0.399360  1.0  -0.6876
  O  O26  1  0.366500  0.646700  0.468930  1.0  -0.825
  O  O27  1  0.169500  0.911700  0.449360  1.0  -0.8128
  O  O28  1  0.925800  0.543500  0.393750  1.0  -0.8051
  O  O29  1  0.442700  0.101700  0.899360  1.0  -0.6872
  O  O30  1  0.633500  0.353300  0.968930  1.0  -0.8255
  O  O31  1  0.830500  0.088300  0.949360  1.0  -0.812
  O  O32  1  0.074200  0.456500  0.893750  1.0  -0.806
  O  O33  1  0.442700  0.101700  0.600640  1.0  -0.6878
  O  O34  1  0.633500  0.353300  0.531070  1.0  -0.8244
  O  O35  1  0.830500  0.088300  0.550640  1.0  -0.8121
  O  O36  1  0.074200  0.456500  0.606250  1.0  -0.8056
  O  O37  1  0.557300  0.898300  0.100640  1.0  -0.6882
  O  O38  1  0.366500  0.646700  0.031070  1.0  -0.8253
  O  O39  1  0.169500  0.911700  0.050640  1.0  -0.8125
  O  O40  1  0.925800  0.543500  0.106250  1.0  -0.8053
