# generated using pymatgen
data_SmH27C39N5O11
_symmetry_space_group_name_H-M   'P 1'
_cell_length_a   11.36500000
_cell_length_b   24.00300000
_cell_length_c   32.88300000
_cell_angle_alpha   97.17000000
_cell_angle_beta   90.00000000
_cell_angle_gamma   90.00000000
_symmetry_Int_Tables_number   1
_chemical_formula_structural   SmH27C39N5O11
_chemical_formula_sum   'Sm8 H216 C312 N40 O88'
_cell_volume   8900.14227310
_cell_formula_units_Z   8
loop_
 _symmetry_equiv_pos_site_id
 _symmetry_equiv_pos_as_xyz
  1  'x, y, z'
loop_
 _atom_site_type_symbol
 _atom_site_label
 _atom_site_symmetry_multiplicity
 _atom_site_fract_x
 _atom_site_fract_y
 _atom_site_fract_z
 _atom_site_occupancy
 _atom_site_charge
  Sm  Sm1  1  0.240090  0.412100  0.627280  1.0  2.3194
  Sm  Sm2  1  0.731270  0.128450  0.398460  1.0  2.3153
  Sm  Sm3  1  0.740090  0.087910  0.872720  1.0  2.3195
  Sm  Sm4  1  0.231270  0.371550  0.101540  1.0  2.3172
  Sm  Sm5  1  0.759910  0.587910  0.372720  1.0  2.3193
  Sm  Sm6  1  0.268730  0.871550  0.601540  1.0  2.3237
  Sm  Sm7  1  0.259910  0.912090  0.127280  1.0  2.3192
  Sm  Sm8  1  0.768730  0.628450  0.898460  1.0  2.3216
  H  H9  1  0.355200  0.579900  0.731300  1.0  0.1189
  H  H10  1  0.563100  0.443800  0.729400  1.0  0.1094
  H  H11  1  0.346400  0.437400  0.482900  1.0  0.1205
  H  H12  1  0.566800  0.517900  0.566800  1.0  0.1023
  H  H13  1  0.152700  0.449200  0.525300  1.0  0.1107
  H  H14  1  0.873900  0.553000  0.544600  1.0  0.1042
  H  H15  1  0.115400  0.340300  0.527400  1.0  0.0996
  H  H16  1  0.067300  0.318400  0.460100  1.0  0.1131
  H  H17  1  0.799500  0.223600  0.490900  1.0  0.0946
  H  H18  1  0.850500  0.243200  0.559400  1.0  0.1226
  H  H19  1  0.553000  0.209600  0.589300  1.0  0.1157
  H  H20  1  0.606600  0.181700  0.521700  1.0  0.1009
  H  H21  1  0.321800  0.261700  0.483900  1.0  0.1112
  H  H22  1  0.274400  0.292000  0.551600  1.0  0.1005
  H  H23  1  0.467000  0.625800  0.783900  1.0  0.1164
  H  H24  1  0.678500  0.491000  0.781000  1.0  0.1227
  H  H25  1  0.043300  0.987900  0.430500  1.0  0.0943
  H  H26  1  0.863800  0.067000  0.525900  1.0  0.1063
  H  H27  1  0.650300  0.058800  0.482800  1.0  0.0977
  H  H28  1  0.375100  0.957100  0.449700  1.0  0.1141
  H  H29  1  0.855200  0.920100  0.768700  1.0  0.1183
  H  H30  1  0.063100  0.056200  0.770600  1.0  0.1087
  H  H31  1  0.846400  0.062600  0.017100  1.0  0.1208
  H  H32  1  0.066800  0.982100  0.933200  1.0  0.1016
  H  H33  1  0.652700  0.050800  0.974700  1.0  0.1106
  H  H34  1  0.373900  0.947000  0.955400  1.0  0.1033
  H  H35  1  0.615400  0.159700  0.972600  1.0  0.0998
  H  H36  1  0.567300  0.181600  0.039900  1.0  0.1124
  H  H37  1  0.299500  0.276400  0.009100  1.0  0.0949
  H  H38  1  0.350500  0.256800  0.940600  1.0  0.1223
  H  H39  1  0.053000  0.290400  0.910700  1.0  0.117
  H  H40  1  0.106600  0.318300  0.978300  1.0  0.1007
  H  H41  1  0.821800  0.238300  0.016100  1.0  0.1107
  H  H42  1  0.774400  0.208000  0.948400  1.0  0.0998
  H  H43  1  0.967000  0.874200  0.716100  1.0  0.1169
  H  H44  1  0.178500  0.009000  0.719000  1.0  0.1231
  H  H45  1  0.543300  0.512100  0.069500  1.0  0.0952
  H  H46  1  0.363800  0.433000  0.974100  1.0  0.1055
  H  H47  1  0.150300  0.441200  0.017200  1.0  0.0976
  H  H48  1  0.875100  0.542900  0.050300  1.0  0.1149
  H  H49  1  0.644800  0.420100  0.268700  1.0  0.1187
  H  H50  1  0.436900  0.556200  0.270600  1.0  0.1091
  H  H51  1  0.653600  0.562600  0.517100  1.0  0.1206
  H  H52  1  0.433200  0.482100  0.433200  1.0  0.1019
  H  H53  1  0.847300  0.550800  0.474700  1.0  0.1107
  H  H54  1  0.126100  0.447000  0.455400  1.0  0.1042
  H  H55  1  0.884600  0.659700  0.472600  1.0  0.0999
  H  H56  1  0.932700  0.681600  0.539900  1.0  0.1129
  H  H57  1  0.200500  0.776400  0.509100  1.0  0.0947
  H  H58  1  0.149500  0.756800  0.440600  1.0  0.1222
  H  H59  1  0.447000  0.790400  0.410700  1.0  0.1166
  H  H60  1  0.393400  0.818300  0.478300  1.0  0.1011
  H  H61  1  0.678200  0.738300  0.516100  1.0  0.1107
  H  H62  1  0.725600  0.708000  0.448400  1.0  0.1003
  H  H63  1  0.533000  0.374200  0.216100  1.0  0.1171
  H  H64  1  0.321500  0.509000  0.219000  1.0  0.1231
  H  H65  1  0.956700  0.012100  0.569500  1.0  0.0949
  H  H66  1  0.136200  0.933000  0.474100  1.0  0.1062
  H  H67  1  0.349700  0.941200  0.517200  1.0  0.0972
  H  H68  1  0.624900  0.042900  0.550300  1.0  0.1151
  H  H69  1  0.144800  0.079900  0.231300  1.0  0.1187
  H  H70  1  0.936900  0.943800  0.229400  1.0  0.1094
  H  H71  1  0.153600  0.937400  0.982900  1.0  0.1204
  H  H72  1  0.933200  0.017900  0.066800  1.0  0.1021
  H  H73  1  0.347300  0.949200  0.025300  1.0  0.1105
  H  H74  1  0.626100  0.053000  0.044600  1.0  0.1045
  H  H75  1  0.384600  0.840300  0.027400  1.0  0.1
  H  H76  1  0.432700  0.818400  0.960100  1.0  0.113
  H  H77  1  0.700500  0.723600  0.990900  1.0  0.0948
  H  H78  1  0.649500  0.743200  0.059400  1.0  0.1224
  H  H79  1  0.947000  0.709600  0.089300  1.0  0.1169
  H  H80  1  0.893400  0.681700  0.021700  1.0  0.1008
  H  H81  1  0.178200  0.761700  0.983900  1.0  0.1111
  H  H82  1  0.225600  0.792000  0.051600  1.0  0.1009
  H  H83  1  0.033000  0.125800  0.283900  1.0  0.1165
  H  H84  1  0.821500  0.991000  0.281000  1.0  0.1227
  H  H85  1  0.456700  0.487900  0.930500  1.0  0.0948
  H  H86  1  0.636200  0.567000  0.025900  1.0  0.1064
  H  H87  1  0.849700  0.558800  0.982800  1.0  0.0977
  H  H88  1  0.124900  0.457100  0.949700  1.0  0.1141
  H  H89  1  0.172500  0.621900  0.579900  1.0  0.1227
  H  H90  1  0.244000  0.565700  0.572800  1.0  0.1244
  H  H91  1  0.422900  0.560000  0.615700  1.0  0.121
  H  H92  1  0.307700  0.715500  0.611900  1.0  0.1221
  H  H93  1  0.469900  0.720000  0.660200  1.0  0.1243
  H  H94  1  0.618600  0.688600  0.702500  1.0  0.1387
  H  H95  1  0.783700  0.653800  0.732200  1.0  0.1084
  H  H96  1  0.841800  0.560500  0.711900  1.0  0.1353
  H  H97  1  0.586800  0.463800  0.623700  1.0  0.1217
  H  H98  1  0.891200  0.468100  0.684500  1.0  0.1296
  H  H99  1  0.866800  0.373300  0.647100  1.0  0.1284
  H  H100  1  0.576100  0.354100  0.600900  1.0  0.121
  H  H101  1  0.696300  0.322000  0.601300  1.0  0.1151
  H  H102  1  0.842400  0.402700  0.560800  1.0  0.0944
  H  H103  1  0.124800  0.585300  0.506100  1.0  0.1143
  H  H104  1  0.525400  0.337300  0.530800  1.0  0.101
  H  H105  1  0.439500  0.651500  0.537000  1.0  0.0981
  H  H106  1  0.827500  0.378100  0.420100  1.0  0.123
  H  H107  1  0.756000  0.434300  0.427200  1.0  0.1238
  H  H108  1  0.577100  0.440000  0.384300  1.0  0.1214
  H  H109  1  0.692300  0.284500  0.388100  1.0  0.1217
  H  H110  1  0.530100  0.280000  0.339800  1.0  0.1236
  H  H111  1  0.381400  0.311400  0.297500  1.0  0.1392
  H  H112  1  0.216300  0.346200  0.267800  1.0  0.1077
  H  H113  1  0.158200  0.439500  0.288100  1.0  0.1354
  H  H114  1  0.413200  0.536200  0.376300  1.0  0.1221
  H  H115  1  0.108800  0.531900  0.315500  1.0  0.1286
  H  H116  1  0.133200  0.626700  0.352900  1.0  0.1294
  H  H117  1  0.423900  0.645900  0.399100  1.0  0.1201
  H  H118  1  0.303700  0.678000  0.398700  1.0  0.1146
  H  H119  1  0.157600  0.597300  0.439200  1.0  0.0941
  H  H120  1  0.875200  0.414700  0.493900  1.0  0.114
  H  H121  1  0.474600  0.662700  0.469200  1.0  0.1012
  H  H122  1  0.560500  0.348500  0.463000  1.0  0.0972
  H  H123  1  0.058800  0.161800  0.416500  1.0  0.1297
  H  H124  1  0.177300  0.195000  0.415500  1.0  0.121
  H  H125  1  0.060900  0.058100  0.381800  1.0  0.1115
  H  H126  1  0.342600  0.149800  0.367100  1.0  0.1349
  H  H127  1  0.358900  0.062500  0.318300  1.0  0.1379
  H  H128  1  0.300200  0.975900  0.281400  1.0  0.1296
  H  H129  1  0.242000  0.886600  0.253400  1.0  0.112
  H  H130  1  0.075900  0.845100  0.281300  1.0  0.1294
  H  H131  1  0.888000  0.957100  0.380800  1.0  0.1105
  H  H132  1  0.946500  0.803900  0.323000  1.0  0.1253
  H  H133  1  0.790300  0.797900  0.373700  1.0  0.1288
  H  H134  1  0.651900  0.882600  0.412800  1.0  0.1231
  H  H135  1  0.715500  0.940600  0.423100  1.0  0.1344
  H  H136  1  0.616200  0.913000  0.489800  1.0  0.0949
  H  H137  1  0.662900  0.892500  0.555300  1.0  0.0999
  H  H138  1  0.027000  0.170700  0.487900  1.0  0.1038
  H  H139  1  0.925200  0.849600  0.447500  1.0  0.108
  H  H140  1  0.941200  0.838200  0.583500  1.0  0.1276
  H  H141  1  0.822700  0.805000  0.584500  1.0  0.1202
  H  H142  1  0.939100  0.941900  0.618200  1.0  0.1121
  H  H143  1  0.657400  0.850200  0.632900  1.0  0.1341
  H  H144  1  0.641100  0.937500  0.681700  1.0  0.138
  H  H145  1  0.699800  0.024100  0.718600  1.0  0.1299
  H  H146  1  0.758000  0.113400  0.746600  1.0  0.1116
  H  H147  1  0.924100  0.154900  0.718700  1.0  0.1308
  H  H148  1  0.112000  0.042900  0.619200  1.0  0.1106
  H  H149  1  0.053500  0.196100  0.677000  1.0  0.1263
  H  H150  1  0.209700  0.202100  0.626300  1.0  0.1289
  H  H151  1  0.348100  0.117400  0.587200  1.0  0.125
  H  H152  1  0.284500  0.059400  0.576900  1.0  0.1344
  H  H153  1  0.383800  0.087000  0.510200  1.0  0.0952
  H  H154  1  0.337100  0.107500  0.444700  1.0  0.0993
  H  H155  1  0.973000  0.829300  0.512100  1.0  0.1038
  H  H156  1  0.074800  0.150400  0.552500  1.0  0.1076
  H  H157  1  0.672500  0.878100  0.920100  1.0  0.1222
  H  H158  1  0.744000  0.934300  0.927200  1.0  0.1242
  H  H159  1  0.922900  0.940000  0.884300  1.0  0.1216
  H  H160  1  0.807700  0.784500  0.888100  1.0  0.1216
  H  H161  1  0.969900  0.780000  0.839800  1.0  0.1237
  H  H162  1  0.118600  0.811400  0.797500  1.0  0.1389
  H  H163  1  0.283700  0.846200  0.767800  1.0  0.1087
  H  H164  1  0.341800  0.939500  0.788100  1.0  0.1356
  H  H165  1  0.086800  0.036200  0.876300  1.0  0.1213
  H  H166  1  0.391200  0.031900  0.815500  1.0  0.1291
  H  H167  1  0.366800  0.126700  0.852900  1.0  0.1293
  H  H168  1  0.076100  0.145900  0.899100  1.0  0.1189
  H  H169  1  0.196300  0.178000  0.898700  1.0  0.1146
  H  H170  1  0.342400  0.097300  0.939200  1.0  0.0946
  H  H171  1  0.624800  0.914700  0.993900  1.0  0.1144
  H  H172  1  0.025400  0.162700  0.969200  1.0  0.1011
  H  H173  1  0.939500  0.848500  0.963000  1.0  0.0981
  H  H174  1  0.327500  0.121900  0.079900  1.0  0.1222
  H  H175  1  0.256000  0.065700  0.072800  1.0  0.1244
  H  H176  1  0.077100  0.060000  0.115700  1.0  0.1209
  H  H177  1  0.192300  0.215500  0.111900  1.0  0.1219
  H  H178  1  0.030100  0.220000  0.160200  1.0  0.1245
  H  H179  1  0.881400  0.188600  0.202500  1.0  0.1389
  H  H180  1  0.716300  0.153800  0.232200  1.0  0.1087
  H  H181  1  0.658200  0.060500  0.211900  1.0  0.1354
  H  H182  1  0.913200  0.963800  0.123700  1.0  0.1221
  H  H183  1  0.608800  0.968100  0.184500  1.0  0.1297
  H  H184  1  0.633200  0.873300  0.147100  1.0  0.1285
  H  H185  1  0.923900  0.854100  0.100900  1.0  0.121
  H  H186  1  0.803700  0.822000  0.101300  1.0  0.1152
  H  H187  1  0.657600  0.902700  0.060800  1.0  0.094
  H  H188  1  0.375200  0.085300  0.006100  1.0  0.1144
  H  H189  1  0.974600  0.837300  0.030800  1.0  0.1012
  H  H190  1  0.060500  0.151500  0.037000  1.0  0.0974
  H  H191  1  0.558800  0.338200  0.083500  1.0  0.1302
  H  H192  1  0.677300  0.305000  0.084500  1.0  0.1191
  H  H193  1  0.560900  0.441900  0.118200  1.0  0.1118
  H  H194  1  0.842600  0.350200  0.132900  1.0  0.134
  H  H195  1  0.858900  0.437500  0.181700  1.0  0.1384
  H  H196  1  0.800200  0.524100  0.218600  1.0  0.1294
  H  H197  1  0.742000  0.613400  0.246600  1.0  0.1107
  H  H198  1  0.575900  0.654900  0.218700  1.0  0.1307
  H  H199  1  0.388000  0.542900  0.119200  1.0  0.1105
  H  H200  1  0.446500  0.696100  0.177000  1.0  0.126
  H  H201  1  0.290300  0.702100  0.126300  1.0  0.1297
  H  H202  1  0.151900  0.617400  0.087200  1.0  0.1245
  H  H203  1  0.215500  0.559400  0.076900  1.0  0.1345
  H  H204  1  0.116200  0.587000  0.010200  1.0  0.0949
  H  H205  1  0.162900  0.607500  0.944700  1.0  0.0999
  H  H206  1  0.527000  0.329300  0.012100  1.0  0.104
  H  H207  1  0.425200  0.650400  0.052500  1.0  0.1077
  H  H208  1  0.441200  0.661800  0.916500  1.0  0.1267
  H  H209  1  0.322700  0.695000  0.915500  1.0  0.1205
  H  H210  1  0.439100  0.558100  0.881800  1.0  0.1121
  H  H211  1  0.157400  0.649800  0.867100  1.0  0.1348
  H  H212  1  0.141100  0.562500  0.818300  1.0  0.1376
  H  H213  1  0.199800  0.475900  0.781400  1.0  0.1299
  H  H214  1  0.258000  0.386600  0.753400  1.0  0.1121
  H  H215  1  0.424100  0.345100  0.781300  1.0  0.1299
  H  H216  1  0.612000  0.457100  0.880800  1.0  0.1104
  H  H217  1  0.553500  0.303900  0.823000  1.0  0.1254
  H  H218  1  0.709700  0.297900  0.873700  1.0  0.1288
  H  H219  1  0.848100  0.382600  0.912800  1.0  0.1262
  H  H220  1  0.784500  0.440600  0.923100  1.0  0.134
  H  H221  1  0.883800  0.413000  0.989800  1.0  0.0953
  H  H222  1  0.837100  0.392500  0.055300  1.0  0.0991
  H  H223  1  0.473000  0.670700  0.987900  1.0  0.1034
  H  H224  1  0.574800  0.349600  0.947500  1.0  0.1075
  C  C225  1  0.372500  0.476200  0.692600  1.0  0.6658
  C  C226  1  0.446300  0.506800  0.725600  1.0  -0.114
  C  C227  1  0.418900  0.561700  0.741700  1.0  -0.0192
  C  C228  1  0.544000  0.480300  0.740400  1.0  -0.0138
  C  C229  1  0.385100  0.445900  0.562900  1.0  0.6916
  C  C230  1  0.444900  0.473800  0.530600  1.0  -0.1171
  C  C231  1  0.407400  0.462700  0.489800  1.0  -0.05
  C  C232  1  0.539700  0.511100  0.539900  1.0  -0.0714
  C  C233  1  0.033400  0.504900  0.588400  1.0  0.7098
  C  C234  1  0.014500  0.501100  0.542700  1.0  -0.1025
  C  C235  1  0.091600  0.469400  0.515300  1.0  -0.1272
  C  C236  1  0.924400  0.531600  0.526700  1.0  -0.0614
  C  C237  1  0.017900  0.308900  0.595800  1.0  0.6483
  C  C238  1  0.989400  0.294700  0.550900  1.0  -0.1521
  C  C239  1  0.052100  0.316500  0.520300  1.0  -0.0708
  C  C240  1  0.022700  0.303800  0.480000  1.0  -0.0804
  C  C241  1  0.926300  0.269100  0.468100  1.0  -0.104
  C  C242  1  0.863300  0.246900  0.498300  1.0  -0.0792
  C  C243  1  0.893300  0.258800  0.539500  1.0  -0.0552
  C  C244  1  0.892000  0.256600  0.424500  1.0  0.6843
  C  C245  1  0.385300  0.280200  0.620700  1.0  0.7224
  C  C246  1  0.411200  0.256400  0.577500  1.0  -0.1283
  C  C247  1  0.508700  0.221400  0.568200  1.0  -0.0432
  C  C248  1  0.540100  0.203900  0.527500  1.0  -0.0153
  C  C249  1  0.471700  0.219700  0.495600  1.0  -0.1652
  C  C250  1  0.369900  0.252300  0.504900  1.0  -0.0594
  C  C251  1  0.341400  0.270300  0.545600  1.0  -0.0815
  C  C252  1  0.507900  0.202900  0.452100  1.0  0.6929
  C  C253  1  0.656500  0.590400  0.822000  1.0  0.665
  C  C254  1  0.582500  0.562500  0.787900  1.0  -0.1128
  C  C255  1  0.486100  0.589300  0.772900  1.0  -0.0429
  C  C256  1  0.612800  0.508400  0.771400  1.0  -0.0638
  C  C257  1  0.879900  0.068000  0.446400  1.0  0.6836
  C  C258  1  0.943000  0.032700  0.473800  1.0  -0.1149
  C  C259  1  0.025700  0.992700  0.458300  1.0  -0.0497
  C  C260  1  0.918200  0.040100  0.515500  1.0  -0.022
  C  C261  1  0.530300  0.020200  0.415500  1.0  0.7428
  C  C262  1  0.514700  0.010400  0.458800  1.0  -0.0968
  C  C263  1  0.589900  0.035400  0.489500  1.0  -0.0892
  C  C264  1  0.425000  0.974500  0.469800  1.0  -0.0756
  C  C265  1  0.872500  0.023800  0.807400  1.0  0.6656
  C  C266  1  0.946300  0.993200  0.774400  1.0  -0.1133
  C  C267  1  0.918900  0.938300  0.758300  1.0  -0.0182
  C  C268  1  0.044000  0.019700  0.759600  1.0  -0.0148
  C  C269  1  0.885100  0.054100  0.937100  1.0  0.6913
  C  C270  1  0.944900  0.026200  0.969400  1.0  -0.1169
  C  C271  1  0.907400  0.037300  0.010200  1.0  -0.0502
  C  C272  1  0.039700  0.988900  0.960100  1.0  -0.071
  C  C273  1  0.533400  0.995100  0.911600  1.0  0.7074
  C  C274  1  0.514500  0.998900  0.957300  1.0  -0.1011
  C  C275  1  0.591600  0.030600  0.984700  1.0  -0.1273
  C  C276  1  0.424400  0.968400  0.973300  1.0  -0.0623
  C  C277  1  0.517900  0.191100  0.904200  1.0  0.6486
  C  C278  1  0.489400  0.205300  0.949100  1.0  -0.1518
  C  C279  1  0.552100  0.183500  0.979700  1.0  -0.071
  C  C280  1  0.522700  0.196200  0.020000  1.0  -0.081
  C  C281  1  0.426300  0.230900  0.031900  1.0  -0.1059
  C  C282  1  0.363300  0.253100  0.001700  1.0  -0.0795
  C  C283  1  0.393300  0.241200  0.960500  1.0  -0.0556
  C  C284  1  0.392000  0.243400  0.075500  1.0  0.6829
  C  C285  1  0.885300  0.219800  0.879300  1.0  0.715
  C  C286  1  0.911200  0.243600  0.922500  1.0  -0.1296
  C  C287  1  0.008700  0.278600  0.931800  1.0  -0.0423
  C  C288  1  0.040100  0.296100  0.972500  1.0  -0.016
  C  C289  1  0.971700  0.280300  0.004400  1.0  -0.1651
  C  C290  1  0.869900  0.247700  0.995100  1.0  -0.0595
  C  C291  1  0.841400  0.229700  0.954400  1.0  -0.0812
  C  C292  1  0.007900  0.297100  0.047900  1.0  0.6911
  C  C293  1  0.156500  0.909600  0.678000  1.0  0.664
  C  C294  1  0.082500  0.937500  0.712100  1.0  -0.1123
  C  C295  1  0.986100  0.910700  0.727100  1.0  -0.0431
  C  C296  1  0.112800  0.991600  0.728600  1.0  -0.0637
  C  C297  1  0.379900  0.432000  0.053600  1.0  0.6836
  C  C298  1  0.443000  0.467300  0.026200  1.0  -0.1155
  C  C299  1  0.525700  0.507300  0.041700  1.0  -0.0502
  C  C300  1  0.418200  0.459900  0.984500  1.0  -0.0224
  C  C301  1  0.030300  0.479800  0.084500  1.0  0.7427
  C  C302  1  0.014700  0.489600  0.041200  1.0  -0.0993
  C  C303  1  0.089900  0.464600  0.010500  1.0  -0.0902
  C  C304  1  0.925000  0.525500  0.030200  1.0  -0.0758
  C  C305  1  0.627500  0.523800  0.307400  1.0  0.6643
  C  C306  1  0.553700  0.493200  0.274400  1.0  -0.1141
  C  C307  1  0.581100  0.438300  0.258300  1.0  -0.0186
  C  C308  1  0.456000  0.519700  0.259600  1.0  -0.0153
  C  C309  1  0.614900  0.554100  0.437100  1.0  0.6918
  C  C310  1  0.555100  0.526200  0.469400  1.0  -0.1165
  C  C311  1  0.592600  0.537300  0.510200  1.0  -0.0483
  C  C312  1  0.460300  0.488900  0.460100  1.0  -0.0705
  C  C313  1  0.966600  0.495100  0.411600  1.0  0.7073
  C  C314  1  0.985500  0.498900  0.457300  1.0  -0.1013
  C  C315  1  0.908400  0.530600  0.484700  1.0  -0.1265
  C  C316  1  0.075600  0.468400  0.473300  1.0  -0.0637
  C  C317  1  0.982100  0.691100  0.404200  1.0  0.6492
  C  C318  1  0.010600  0.705300  0.449100  1.0  -0.1521
  C  C319  1  0.947900  0.683500  0.479700  1.0  -0.0699
  C  C320  1  0.977300  0.696200  0.520000  1.0  -0.0802
  C  C321  1  0.073700  0.730900  0.531900  1.0  -0.1071
  C  C322  1  0.136700  0.753100  0.501700  1.0  -0.0807
  C  C323  1  0.106700  0.741200  0.460500  1.0  -0.0563
  C  C324  1  0.108000  0.743400  0.575500  1.0  0.6817
  C  C325  1  0.614700  0.719800  0.379300  1.0  0.7133
  C  C326  1  0.588800  0.743600  0.422500  1.0  -0.13
  C  C327  1  0.491300  0.778600  0.431800  1.0  -0.0403
  C  C328  1  0.459900  0.796100  0.472500  1.0  -0.0152
  C  C329  1  0.528300  0.780300  0.504400  1.0  -0.1649
  C  C330  1  0.630100  0.747700  0.495100  1.0  -0.0601
  C  C331  1  0.658600  0.729700  0.454400  1.0  -0.0817
  C  C332  1  0.492100  0.797100  0.547900  1.0  0.6913
  C  C333  1  0.343500  0.409600  0.178000  1.0  0.6667
  C  C334  1  0.417500  0.437500  0.212100  1.0  -0.1126
  C  C335  1  0.513900  0.410700  0.227100  1.0  -0.0449
  C  C336  1  0.387200  0.491600  0.228600  1.0  -0.0646
  C  C337  1  0.120100  0.932000  0.553600  1.0  0.6849
  C  C338  1  0.057000  0.967300  0.526200  1.0  -0.1145
  C  C339  1  0.974300  0.007300  0.541700  1.0  -0.0484
  C  C340  1  0.081800  0.959900  0.484500  1.0  -0.0242
  C  C341  1  0.469700  0.979800  0.584500  1.0  0.7434
  C  C342  1  0.485300  0.989600  0.541200  1.0  -0.0994
  C  C343  1  0.410100  0.964600  0.510500  1.0  -0.0887
  C  C344  1  0.575000  0.025500  0.530200  1.0  -0.0749
  C  C345  1  0.127500  0.976200  0.192600  1.0  0.6639
  C  C346  1  0.053700  0.006800  0.225600  1.0  -0.1131
  C  C347  1  0.081100  0.061700  0.241700  1.0  -0.019
  C  C348  1  0.956000  0.980300  0.240400  1.0  -0.0129
  C  C349  1  0.114900  0.945900  0.062900  1.0  0.6919
  C  C350  1  0.055100  0.973800  0.030600  1.0  -0.1166
  C  C351  1  0.092600  0.962700  0.989800  1.0  -0.0477
  C  C352  1  0.960300  0.011100  0.039900  1.0  -0.0712
  C  C353  1  0.466600  0.004900  0.088400  1.0  0.7109
  C  C354  1  0.485500  0.001100  0.042700  1.0  -0.1038
  C  C355  1  0.408400  0.969400  0.015300  1.0  -0.1268
  C  C356  1  0.575600  0.031600  0.026700  1.0  -0.0627
  C  C357  1  0.482100  0.808900  0.095800  1.0  0.6464
  C  C358  1  0.510600  0.794700  0.050900  1.0  -0.1513
  C  C359  1  0.447900  0.816500  0.020300  1.0  -0.0694
  C  C360  1  0.477300  0.803800  0.980000  1.0  -0.0794
  C  C361  1  0.573700  0.769100  0.968100  1.0  -0.106
  C  C362  1  0.636700  0.746900  0.998300  1.0  -0.0807
  C  C363  1  0.606700  0.758800  0.039500  1.0  -0.0557
  C  C364  1  0.608000  0.756600  0.924500  1.0  0.6841
  C  C365  1  0.114700  0.780200  0.120700  1.0  0.7217
  C  C366  1  0.088800  0.756400  0.077500  1.0  -0.1281
  C  C367  1  0.991300  0.721400  0.068200  1.0  -0.0432
  C  C368  1  0.959900  0.703900  0.027500  1.0  -0.0146
  C  C369  1  0.028300  0.719700  0.995600  1.0  -0.1656
  C  C370  1  0.130100  0.752300  0.004900  1.0  -0.0602
  C  C371  1  0.158600  0.770300  0.045600  1.0  -0.082
  C  C372  1  0.992100  0.702900  0.952100  1.0  0.6944
  C  C373  1  0.843500  0.090400  0.322000  1.0  0.6674
  C  C374  1  0.917500  0.062500  0.287900  1.0  -0.1122
  C  C375  1  0.013900  0.089300  0.272900  1.0  -0.0433
  C  C376  1  0.887200  0.008400  0.271400  1.0  -0.0647
  C  C377  1  0.620100  0.568000  0.946400  1.0  0.6848
  C  C378  1  0.557000  0.532700  0.973800  1.0  -0.1143
  C  C379  1  0.474300  0.492700  0.958300  1.0  -0.0473
  C  C380  1  0.581800  0.540100  0.015500  1.0  -0.024
  C  C381  1  0.969700  0.520200  0.915500  1.0  0.7431
  C  C382  1  0.985300  0.510400  0.958800  1.0  -0.0962
  C  C383  1  0.910100  0.535400  0.989500  1.0  -0.0877
  C  C384  1  0.075000  0.474500  0.969800  1.0  -0.0759
  C  C385  1  0.278600  0.617400  0.529200  1.0  0.0666
  C  C386  1  0.249100  0.606000  0.572400  1.0  -0.0924
  C  C387  1  0.414900  0.598900  0.620300  1.0  0.1028
  C  C388  1  0.351600  0.685200  0.618700  1.0  -0.1124
  C  C389  1  0.440300  0.687800  0.644900  1.0  -0.1268
  C  C390  1  0.584300  0.615900  0.666400  1.0  0.2673
  C  C391  1  0.643600  0.651800  0.695200  1.0  -0.1773
  C  C392  1  0.740700  0.631000  0.712600  1.0  -0.0998
  C  C393  1  0.775400  0.575600  0.700800  1.0  -0.2158
  C  C394  1  0.707200  0.544500  0.672300  1.0  0.3245
  C  C395  1  0.658700  0.453100  0.633900  1.0  0.1069
  C  C396  1  0.828500  0.455400  0.667700  1.0  -0.1334
  C  C397  1  0.814800  0.403200  0.647200  1.0  -0.1198
  C  C398  1  0.660200  0.357200  0.596700  1.0  -0.0761
  C  C399  1  0.682800  0.367700  0.552900  1.0  0.047
  C  C400  1  0.785300  0.391400  0.541200  1.0  -0.1088
  C  C401  1  0.195200  0.601300  0.498900  1.0  -0.1016
  C  C402  1  0.596500  0.352300  0.523300  1.0  -0.1289
  C  C403  1  0.382400  0.640500  0.517400  1.0  -0.0918
  C  C404  1  0.721400  0.382600  0.470800  1.0  0.0649
  C  C405  1  0.750900  0.394000  0.427600  1.0  -0.0888
  C  C406  1  0.585100  0.401100  0.379700  1.0  0.1025
  C  C407  1  0.648400  0.314800  0.381300  1.0  -0.1137
  C  C408  1  0.559700  0.312200  0.355100  1.0  -0.1276
  C  C409  1  0.415700  0.384100  0.333600  1.0  0.2683
  C  C410  1  0.356400  0.348200  0.304800  1.0  -0.1776
  C  C411  1  0.259300  0.369000  0.287400  1.0  -0.0993
  C  C412  1  0.224600  0.424400  0.299200  1.0  -0.2189
  C  C413  1  0.292800  0.455500  0.327700  1.0  0.3256
  C  C414  1  0.341300  0.546900  0.366100  1.0  0.1062
  C  C415  1  0.171500  0.544600  0.332300  1.0  -0.1341
  C  C416  1  0.185200  0.596800  0.352800  1.0  -0.1219
  C  C417  1  0.339800  0.642800  0.403300  1.0  -0.0772
  C  C418  1  0.317200  0.632300  0.447100  1.0  0.0458
  C  C419  1  0.214700  0.608600  0.458800  1.0  -0.1084
  C  C420  1  0.804800  0.398700  0.501100  1.0  -0.1017
  C  C421  1  0.403500  0.647700  0.476700  1.0  -0.1313
  C  C422  1  0.617600  0.359500  0.482600  1.0  -0.0908
  C  C423  1  0.143700  0.158500  0.418200  1.0  -0.0561
  C  C424  1  0.132400  0.069800  0.372000  1.0  0.1036
  C  C425  1  0.288500  0.120500  0.363600  1.0  -0.1424
  C  C426  1  0.298300  0.072100  0.336900  1.0  -0.1133
  C  C427  1  0.170600  0.985900  0.324300  1.0  0.3371
  C  C428  1  0.235400  0.958700  0.291700  1.0  -0.2149
  C  C429  1  0.200900  0.905700  0.275300  1.0  -0.0945
  C  C430  1  0.103000  0.880500  0.291900  1.0  -0.1904
  C  C431  1  0.050800  0.911100  0.324300  1.0  0.3598
  C  C432  1  0.884200  0.918600  0.372900  1.0  0.1106
  C  C433  1  0.916400  0.833400  0.341000  1.0  -0.098
  C  C434  1  0.830100  0.830100  0.368500  1.0  -0.1329
  C  C435  1  0.726900  0.900200  0.420300  1.0  -0.1336
  C  C436  1  0.766500  0.883300  0.462100  1.0  0.0596
  C  C437  1  0.687800  0.896100  0.494400  1.0  -0.123
  C  C438  1  0.715800  0.883700  0.533900  1.0  -0.1164
  C  C439  1  0.176300  0.141900  0.459000  1.0  0.0979
  C  C440  1  0.099100  0.154000  0.492100  1.0  -0.118
  C  C441  1  0.872500  0.858300  0.469000  1.0  -0.1199
  C  C442  1  0.856300  0.841500  0.581800  1.0  -0.0578
  C  C443  1  0.867600  0.930200  0.628000  1.0  0.1042
  C  C444  1  0.711500  0.879500  0.636400  1.0  -0.1414
  C  C445  1  0.701700  0.927900  0.663100  1.0  -0.1151
  C  C446  1  0.829400  0.014100  0.675700  1.0  0.337
  C  C447  1  0.764600  0.041300  0.708300  1.0  -0.2176
  C  C448  1  0.799100  0.094300  0.724700  1.0  -0.0946
  C  C449  1  0.897000  0.119500  0.708100  1.0  -0.1902
  C  C450  1  0.949200  0.088900  0.675700  1.0  0.3597
  C  C451  1  0.115800  0.081400  0.627100  1.0  0.1112
  C  C452  1  0.083600  0.166600  0.659000  1.0  -0.0989
  C  C453  1  0.169900  0.169900  0.631500  1.0  -0.1324
  C  C454  1  0.273100  0.099800  0.579700  1.0  -0.1337
  C  C455  1  0.233500  0.116700  0.537900  1.0  0.0608
  C  C456  1  0.312200  0.103900  0.505600  1.0  -0.1213
  C  C457  1  0.284200  0.116300  0.466100  1.0  -0.1214
  C  C458  1  0.823700  0.858100  0.541000  1.0  0.0982
  C  C459  1  0.900900  0.846000  0.507900  1.0  -0.1181
  C  C460  1  0.127500  0.141700  0.531000  1.0  -0.1145
  C  C461  1  0.778600  0.882600  0.970800  1.0  0.0649
  C  C462  1  0.749100  0.894000  0.927600  1.0  -0.0893
  C  C463  1  0.914900  0.901100  0.879700  1.0  0.1029
  C  C464  1  0.851600  0.814800  0.881300  1.0  -0.1133
  C  C465  1  0.940300  0.812200  0.855100  1.0  -0.1281
  C  C466  1  0.084300  0.884100  0.833600  1.0  0.268
  C  C467  1  0.143600  0.848200  0.804800  1.0  -0.1781
  C  C468  1  0.240700  0.869000  0.787400  1.0  -0.0987
  C  C469  1  0.275400  0.924400  0.799200  1.0  -0.2159
  C  C470  1  0.207200  0.955500  0.827700  1.0  0.3256
  C  C471  1  0.158700  0.046900  0.866100  1.0  0.1065
  C  C472  1  0.328500  0.044600  0.832300  1.0  -0.133
  C  C473  1  0.314800  0.096800  0.852800  1.0  -0.1214
  C  C474  1  0.160200  0.142800  0.903300  1.0  -0.0773
  C  C475  1  0.182800  0.132300  0.947100  1.0  0.0461
  C  C476  1  0.285300  0.108600  0.958800  1.0  -0.1092
  C  C477  1  0.695200  0.898700  0.001100  1.0  -0.1019
  C  C478  1  0.096500  0.147700  0.976700  1.0  -0.1284
  C  C479  1  0.882400  0.859500  0.982600  1.0  -0.0906
  C  C480  1  0.221400  0.117400  0.029200  1.0  0.0666
  C  C481  1  0.250900  0.106000  0.072400  1.0  -0.0912
  C  C482  1  0.085100  0.098900  0.120300  1.0  0.1027
  C  C483  1  0.148400  0.185200  0.118700  1.0  -0.1104
  C  C484  1  0.059700  0.187800  0.144900  1.0  -0.1277
  C  C485  1  0.915700  0.115900  0.166400  1.0  0.2672
  C  C486  1  0.856400  0.151800  0.195200  1.0  -0.1764
  C  C487  1  0.759300  0.131000  0.212600  1.0  -0.1003
  C  C488  1  0.724600  0.075600  0.200800  1.0  -0.2186
  C  C489  1  0.792800  0.044500  0.172300  1.0  0.3251
  C  C490  1  0.841300  0.953100  0.133900  1.0  0.1073
  C  C491  1  0.671500  0.955400  0.167700  1.0  -0.1369
  C  C492  1  0.685200  0.903200  0.147200  1.0  -0.1224
  C  C493  1  0.839800  0.857200  0.096700  1.0  -0.0759
  C  C494  1  0.817200  0.867700  0.052900  1.0  0.0467
  C  C495  1  0.714700  0.891400  0.041200  1.0  -0.1082
  C  C496  1  0.304800  0.101300  0.998900  1.0  -0.1011
  C  C497  1  0.903500  0.852300  0.023300  1.0  -0.1318
  C  C498  1  0.117600  0.140500  0.017400  1.0  -0.0914
  C  C499  1  0.643700  0.341500  0.081800  1.0  -0.0565
  C  C500  1  0.632400  0.430200  0.128000  1.0  0.1042
  C  C501  1  0.788500  0.379500  0.136400  1.0  -0.1412
  C  C502  1  0.798300  0.427900  0.163100  1.0  -0.1134
  C  C503  1  0.670600  0.514100  0.175700  1.0  0.3361
  C  C504  1  0.735400  0.541300  0.208300  1.0  -0.2151
  C  C505  1  0.700900  0.594300  0.224700  1.0  -0.0939
  C  C506  1  0.603000  0.619500  0.208100  1.0  -0.1907
  C  C507  1  0.550800  0.588900  0.175700  1.0  0.359
  C  C508  1  0.384200  0.581400  0.127100  1.0  0.1114
  C  C509  1  0.416400  0.666667  0.159000  1.0  -0.0947
  C  C510  1  0.330100  0.669900  0.131500  1.0  -0.1324
  C  C511  1  0.226900  0.599800  0.079700  1.0  -0.1347
  C  C512  1  0.266500  0.616700  0.037900  1.0  0.0613
  C  C513  1  0.187800  0.603900  0.005600  1.0  -0.1234
  C  C514  1  0.215800  0.616300  0.966100  1.0  -0.1176
  C  C515  1  0.676300  0.358100  0.041000  1.0  0.0983
  C  C516  1  0.599100  0.346000  0.007900  1.0  -0.1179
  C  C517  1  0.372500  0.641700  0.031000  1.0  -0.1195
  C  C518  1  0.356300  0.658500  0.918200  1.0  -0.0578
  C  C519  1  0.367600  0.569800  0.872000  1.0  0.1031
  C  C520  1  0.211500  0.620500  0.863600  1.0  -0.1416
  C  C521  1  0.201700  0.572100  0.836900  1.0  -0.1138
  C  C522  1  0.329400  0.485900  0.824300  1.0  0.3374
  C  C523  1  0.264600  0.458700  0.791700  1.0  -0.2178
  C  C524  1  0.299100  0.405700  0.775300  1.0  -0.0956
  C  C525  1  0.397000  0.380500  0.791900  1.0  -0.1903
  C  C526  1  0.449200  0.411100  0.824300  1.0  0.3607
  C  C527  1  0.615800  0.418600  0.872900  1.0  0.1109
  C  C528  1  0.583600  0.333400  0.841000  1.0  -0.0977
  C  C529  1  0.669900  0.330100  0.868500  1.0  -0.133
  C  C530  1  0.773100  0.400200  0.920300  1.0  -0.1323
  C  C531  1  0.733500  0.383300  0.962100  1.0  0.0591
  C  C532  1  0.812200  0.396100  0.994400  1.0  -0.1209
  C  C533  1  0.784200  0.383700  0.033900  1.0  -0.1197
  C  C534  1  0.323700  0.641900  0.959000  1.0  0.0978
  C  C535  1  0.400900  0.654000  0.992100  1.0  -0.1185
  C  C536  1  0.627500  0.358300  0.969000  1.0  -0.1157
  N  N537  1  0.336100  0.629300  0.603100  1.0  0.0423
  N  N538  1  0.480300  0.633900  0.645400  1.0  0.0599
  N  N539  1  0.613600  0.563200  0.654420  1.0  -0.4777
  N  N540  1  0.731200  0.485900  0.658700  1.0  0.0519
  N  N541  1  0.708000  0.402900  0.626300  1.0  0.0515
  N  N542  1  0.663900  0.370700  0.396900  1.0  0.0429
  N  N543  1  0.519700  0.366100  0.354600  1.0  0.0592
  N  N544  1  0.386400  0.436800  0.345580  1.0  -0.4779
  N  N545  1  0.268800  0.514100  0.341300  1.0  0.0525
  N  N546  1  0.292000  0.597100  0.373700  1.0  0.0499
  N  N547  1  0.185200  0.117700  0.384000  1.0  0.0821
  N  N548  1  0.199300  0.040400  0.343200  1.0  0.0661
  N  N549  1  0.078900  0.963200  0.340900  1.0  -0.5508
  N  N550  1  0.952400  0.889300  0.344500  1.0  0.0383
  N  N551  1  0.812000  0.884100  0.387600  1.0  0.051
  N  N552  1  0.814800  0.882300  0.616000  1.0  0.0809
  N  N553  1  0.800700  0.959600  0.656800  1.0  0.0667
  N  N554  1  0.921100  0.036800  0.659100  1.0  -0.5466
  N  N555  1  0.047600  0.110700  0.655500  1.0  0.0382
  N  N556  1  0.188000  0.115900  0.612400  1.0  0.0523
  N  N557  1  0.836100  0.870700  0.896900  1.0  0.0424
  N  N558  1  0.980300  0.866100  0.854600  1.0  0.0602
  N  N559  1  0.113600  0.936800  0.845580  1.0  -0.4798
  N  N560  1  0.231200  0.014100  0.841300  1.0  0.0534
  N  N561  1  0.208000  0.097100  0.873700  1.0  0.0501
  N  N562  1  0.163900  0.129300  0.103100  1.0  0.042
  N  N563  1  0.019700  0.133900  0.145400  1.0  0.0599
  N  N564  1  0.886400  0.063200  0.154420  1.0  -0.4762
  N  N565  1  0.768800  0.985900  0.158700  1.0  0.0527
  N  N566  1  0.792000  0.902900  0.126300  1.0  0.0518
  N  N567  1  0.685200  0.382300  0.116000  1.0  0.0811
  N  N568  1  0.699300  0.459600  0.156800  1.0  0.065
  N  N569  1  0.578900  0.536800  0.159100  1.0  -0.5475
  N  N570  1  0.452400  0.610700  0.155500  1.0  0.0362
  N  N571  1  0.312000  0.615900  0.112400  1.0  0.0503
  N  N572  1  0.314800  0.617700  0.884000  1.0  0.0813
  N  N573  1  0.300700  0.540400  0.843200  1.0  0.0664
  N  N574  1  0.421100  0.463200  0.840900  1.0  -0.5491
  N  N575  1  0.547600  0.389300  0.844500  1.0  0.0379
  N  N576  1  0.688000  0.384100  0.887600  1.0  0.0529
  O  O577  1  0.120600  0.410900  0.688430  1.0  -0.3094
  O  O578  1  0.287300  0.500500  0.676750  1.0  -0.6561
  O  O579  1  0.396700  0.424600  0.680420  1.0  -0.6675
  O  O580  1  0.585700  0.173400  0.360550  1.0  -0.2769
  O  O581  1  0.407300  0.465000  0.600520  1.0  -0.632
  O  O582  1  0.313400  0.406900  0.553970  1.0  -0.6462
  O  O583  1  0.117300  0.476000  0.600950  1.0  -0.721
  O  O584  1  0.968600  0.537100  0.612060  1.0  -0.5878
  O  O585  1  0.093800  0.348400  0.603920  1.0  -0.7146
  O  O586  1  0.964900  0.285400  0.621290  1.0  -0.5728
  O  O587  1  0.825500  0.215900  0.413430  1.0  -0.7099
  O  O588  1  0.933000  0.287800  0.399550  1.0  -0.5732
  O  O589  1  0.335100  0.326300  0.626530  1.0  -0.7441
  O  O590  1  0.413400  0.252500  0.649240  1.0  -0.5331
  O  O591  1  0.598700  0.172400  0.446780  1.0  -0.7061
  O  O592  1  0.449400  0.219000  0.423450  1.0  -0.5612
  O  O593  1  0.753600  0.570400  0.831030  1.0  -0.6761
  O  O594  1  0.619400  0.635400  0.843140  1.0  -0.6919
  O  O595  1  0.887000  0.055100  0.408030  1.0  -0.6205
  O  O596  1  0.821400  0.109500  0.461980  1.0  -0.6299
  O  O597  1  0.610000  0.052800  0.406970  1.0  -0.7333
  O  O598  1  0.461500  0.996100  0.388590  1.0  -0.5868
  O  O599  1  0.620600  0.089100  0.811570  1.0  -0.3106
  O  O600  1  0.787300  0.999500  0.823250  1.0  -0.6562
  O  O601  1  0.896700  0.075400  0.819580  1.0  -0.6688
  O  O602  1  0.085700  0.326600  0.139450  1.0  -0.2749
  O  O603  1  0.907300  0.035000  0.899480  1.0  -0.6312
  O  O604  1  0.813400  0.093100  0.946030  1.0  -0.6457
  O  O605  1  0.617300  0.024000  0.899050  1.0  -0.7204
  O  O606  1  0.468600  0.962900  0.887940  1.0  -0.5896
  O  O607  1  0.593800  0.151600  0.896080  1.0  -0.7149
  O  O608  1  0.464900  0.214600  0.878710  1.0  -0.5746
  O  O609  1  0.325500  0.284100  0.086570  1.0  -0.7098
  O  O610  1  0.433000  0.212200  0.100450  1.0  -0.575
  O  O611  1  0.835100  0.173700  0.873470  1.0  -0.7411
  O  O612  1  0.913400  0.247500  0.850760  1.0  -0.5315
  O  O613  1  0.098700  0.327600  0.053220  1.0  -0.7076
  O  O614  1  0.949400  0.281000  0.076550  1.0  -0.5586
  O  O615  1  0.253600  0.929600  0.668970  1.0  -0.6749
  O  O616  1  0.119400  0.864600  0.656860  1.0  -0.6885
  O  O617  1  0.387000  0.444900  0.091970  1.0  -0.6214
  O  O618  1  0.321400  0.390500  0.038020  1.0  -0.6297
  O  O619  1  0.110000  0.447200  0.093030  1.0  -0.7332
  O  O620  1  0.961500  0.503900  0.111410  1.0  -0.5844
  O  O621  1  0.879400  0.589100  0.311570  1.0  -0.3105
  O  O622  1  0.712700  0.499500  0.323250  1.0  -0.6562
  O  O623  1  0.603300  0.575400  0.319580  1.0  -0.668
  O  O624  1  0.414300  0.826600  0.639450  1.0  -0.2749
  O  O625  1  0.592700  0.535000  0.399480  1.0  -0.6316
  O  O626  1  0.686600  0.593100  0.446030  1.0  -0.6452
  O  O627  1  0.882700  0.524000  0.399050  1.0  -0.719
  O  O628  1  0.031400  0.462900  0.387940  1.0  -0.5888
  O  O629  1  0.906200  0.651600  0.396080  1.0  -0.7142
  O  O630  1  0.035100  0.714600  0.378710  1.0  -0.574
  O  O631  1  0.174500  0.784100  0.586570  1.0  -0.7098
  O  O632  1  0.067000  0.712200  0.600450  1.0  -0.5731
  O  O633  1  0.664900  0.673700  0.373470  1.0  -0.7417
  O  O634  1  0.586600  0.747500  0.350760  1.0  -0.5317
  O  O635  1  0.401300  0.827600  0.553220  1.0  -0.7077
  O  O636  1  0.550600  0.781000  0.576550  1.0  -0.5588
  O  O637  1  0.246400  0.429600  0.168970  1.0  -0.6748
  O  O638  1  0.380600  0.364600  0.156860  1.0  -0.6888
  O  O639  1  0.113000  0.944900  0.591970  1.0  -0.6212
  O  O640  1  0.178600  0.890500  0.538020  1.0  -0.6302
  O  O641  1  0.390000  0.947200  0.593030  1.0  -0.7328
  O  O642  1  0.538500  0.003900  0.611410  1.0  -0.5853
  O  O643  1  0.379400  0.910900  0.188430  1.0  -0.3089
  O  O644  1  0.212700  0.000500  0.176750  1.0  -0.6556
  O  O645  1  0.103300  0.924600  0.180420  1.0  -0.6679
  O  O646  1  0.914300  0.673400  0.860550  1.0  -0.2769
  O  O647  1  0.092700  0.965000  0.100520  1.0  -0.6315
  O  O648  1  0.186600  0.906900  0.053970  1.0  -0.6454
  O  O649  1  0.382700  0.976000  0.100950  1.0  -0.7197
  O  O650  1  0.531400  0.037100  0.112060  1.0  -0.5882
  O  O651  1  0.406200  0.848400  0.103920  1.0  -0.7152
  O  O652  1  0.535100  0.785400  0.121290  1.0  -0.5714
  O  O653  1  0.674500  0.715900  0.913430  1.0  -0.7098
  O  O654  1  0.567000  0.787800  0.899550  1.0  -0.5749
  O  O655  1  0.164900  0.826300  0.126530  1.0  -0.7438
  O  O656  1  0.086600  0.752500  0.149240  1.0  -0.5349
  O  O657  1  0.901300  0.672400  0.946780  1.0  -0.7059
  O  O658  1  0.050600  0.719000  0.923450  1.0  -0.5618
  O  O659  1  0.746400  0.070400  0.331030  1.0  -0.6755
  O  O660  1  0.880600  0.135400  0.343140  1.0  -0.6922
  O  O661  1  0.613000  0.555100  0.908030  1.0  -0.6205
  O  O662  1  0.678600  0.609500  0.961980  1.0  -0.6309
  O  O663  1  0.890000  0.552800  0.906970  1.0  -0.7325
  O  O664  1  0.038500  0.496100  0.888590  1.0  -0.5871
