# generated using pymatgen
data_NdH27C39N5O12
_symmetry_space_group_name_H-M   'P 1'
_cell_length_a   11.64900000
_cell_length_b   16.83300000
_cell_length_c   25.51500000
_cell_angle_alpha   99.17000000
_cell_angle_beta   101.55000000
_cell_angle_gamma   93.41000000
_symmetry_Int_Tables_number   1
_chemical_formula_structural   NdH27C39N5O12
_chemical_formula_sum   'Nd4 H108 C156 N20 O48'
_cell_volume   4817.56697020
_cell_formula_units_Z   4
loop_
 _symmetry_equiv_pos_site_id
 _symmetry_equiv_pos_as_xyz
  1  'x, y, z'
loop_
 _atom_site_type_symbol
 _atom_site_label
 _atom_site_symmetry_multiplicity
 _atom_site_fract_x
 _atom_site_fract_y
 _atom_site_fract_z
 _atom_site_occupancy
 _atom_site_charge
  Nd  Nd1  1  0.927370  0.207200  0.104190  1.0  2.2427
  Nd  Nd2  1  0.596290  0.803000  0.307060  1.0  2.2847
  Nd  Nd3  1  0.072630  0.792800  0.895810  1.0  2.2432
  Nd  Nd4  1  0.403710  0.197000  0.692940  1.0  2.2847
  H  H5  1  0.648800  0.941900  0.053700  1.0  0.1211
  H  H6  1  0.516300  0.143100  0.997700  1.0  0.1402
  H  H7  1  0.730200  0.425700  0.284900  1.0  0.1233
  H  H8  1  0.893200  0.428900  0.159700  1.0  0.1156
  H  H9  1  0.901300  0.504500  0.070700  1.0  0.1168
  H  H10  1  0.068500  0.378000  0.964100  1.0  0.1214
  H  H11  1  0.178900  0.078300  0.193100  1.0  0.1109
  H  H12  1  0.285500  0.001700  0.250700  1.0  0.1258
  H  H13  1  0.459900  0.918600  0.134400  1.0  0.1103
  H  H14  1  0.347400  0.992300  0.075200  1.0  0.1024
  H  H15  1  0.336600  0.369900  0.285100  1.0  0.135
  H  H16  1  0.450100  0.495400  0.316400  1.0  0.1231
  H  H17  1  0.234400  0.603300  0.209800  1.0  0.1095
  H  H18  1  0.121300  0.478500  0.177700  1.0  0.115
  H  H19  1  0.883500  0.571100  0.168700  1.0  0.1144
  H  H20  1  0.704000  0.568000  0.288900  1.0  0.1055
  H  H21  1  0.381100  0.877800  0.458700  1.0  0.1303
  H  H22  1  0.662600  0.038900  0.466600  1.0  0.1155
  H  H23  1  0.351200  0.058100  0.946300  1.0  0.1218
  H  H24  1  0.483700  0.856900  0.002300  1.0  0.14
  H  H25  1  0.269800  0.574300  0.715100  1.0  0.1219
  H  H26  1  0.106800  0.571100  0.840300  1.0  0.1157
  H  H27  1  0.098700  0.495500  0.929300  1.0  0.1163
  H  H28  1  0.931500  0.622000  0.035900  1.0  0.1221
  H  H29  1  0.821100  0.921700  0.806900  1.0  0.1111
  H  H30  1  0.714500  0.998300  0.749300  1.0  0.1259
  H  H31  1  0.540100  0.081400  0.865600  1.0  0.1097
  H  H32  1  0.652600  0.007700  0.924800  1.0  0.1024
  H  H33  1  0.663400  0.630100  0.714900  1.0  0.1351
  H  H34  1  0.549900  0.504600  0.683600  1.0  0.1238
  H  H35  1  0.765600  0.396700  0.790200  1.0  0.1091
  H  H36  1  0.878700  0.521500  0.822300  1.0  0.1148
  H  H37  1  0.116500  0.428900  0.831300  1.0  0.1141
  H  H38  1  0.296000  0.432000  0.711100  1.0  0.1061
  H  H39  1  0.618900  0.122200  0.541300  1.0  0.1305
  H  H40  1  0.337400  0.961100  0.533400  1.0  0.1157
  H  H41  1  0.233900  0.253500  0.312600  1.0  0.1176
  H  H42  1  0.226500  0.247700  0.466300  1.0  0.1225
  H  H43  1  0.393100  0.173000  0.445700  1.0  0.1386
  H  H44  1  0.512700  0.100100  0.390500  1.0  0.1229
  H  H45  1  0.638700  0.050000  0.335800  1.0  0.118
  H  H46  1  0.631700  0.094200  0.252200  1.0  0.136
  H  H47  1  0.323200  0.238900  0.199500  1.0  0.1221
  H  H48  1  0.643800  0.177900  0.182000  1.0  0.1382
  H  H49  1  0.557100  0.242400  0.105100  1.0  0.1208
  H  H50  1  0.320600  0.269800  0.066800  1.0  0.1624
  H  H51  1  0.251600  0.293100  0.112900  1.0  0.169
  H  H52  1  0.271900  0.403100  0.035000  1.0  0.1125
  H  H53  1  0.328700  0.542300  0.036700  1.0  0.1164
  H  H54  1  0.537300  0.554600  0.182900  1.0  0.0954
  H  H55  1  0.484400  0.413700  0.180500  1.0  0.0992
  H  H56  1  0.518000  0.663800  0.083200  1.0  0.1564
  H  H57  1  0.526800  0.682200  0.146200  1.0  0.1508
  H  H58  1  0.325700  0.721400  0.176700  1.0  0.1333
  H  H59  1  0.345700  0.729300  0.023400  1.0  0.1351
  H  H60  1  0.173000  0.796700  0.040300  1.0  0.1336
  H  H61  1  0.050000  0.874200  0.092800  1.0  0.1421
  H  H62  1  0.931000  0.931700  0.147800  1.0  0.1191
  H  H63  1  0.934400  0.890900  0.231700  1.0  0.1363
  H  H64  1  0.235500  0.738400  0.286200  1.0  0.118
  H  H65  1  0.917200  0.805200  0.301400  1.0  0.1339
  H  H66  1  0.996100  0.737300  0.377500  1.0  0.1081
  H  H67  1  0.302100  0.685600  0.374300  1.0  0.1649
  H  H68  1  0.230600  0.709200  0.419300  1.0  0.1658
  H  H69  1  0.300800  0.573600  0.448200  1.0  0.1303
  H  H70  1  0.257200  0.435300  0.447000  1.0  0.1159
  H  H71  1  0.010600  0.424100  0.312200  1.0  0.097
  H  H72  1  0.058000  0.562100  0.310400  1.0  0.1116
  H  H73  1  0.039500  0.295800  0.346100  1.0  0.154
  H  H74  1  0.053700  0.314800  0.409200  1.0  0.1575
  H  H75  1  0.848400  0.490600  0.425200  1.0  0.1245
  H  H76  1  0.102400  0.626200  0.540600  1.0  0.1144
  H  H77  1  0.151600  0.509400  0.574800  1.0  0.1236
  H  H78  1  0.897600  0.373800  0.459400  1.0  0.1146
  H  H79  1  0.766100  0.746500  0.687400  1.0  0.118
  H  H80  1  0.773500  0.752300  0.533700  1.0  0.1223
  H  H81  1  0.606900  0.827000  0.554300  1.0  0.1382
  H  H82  1  0.487300  0.899900  0.609500  1.0  0.1236
  H  H83  1  0.361300  0.950000  0.664200  1.0  0.1182
  H  H84  1  0.368300  0.905800  0.747800  1.0  0.1354
  H  H85  1  0.676800  0.761100  0.800500  1.0  0.1217
  H  H86  1  0.356200  0.822100  0.818000  1.0  0.1383
  H  H87  1  0.442900  0.757600  0.894900  1.0  0.1211
  H  H88  1  0.679400  0.730200  0.933200  1.0  0.1621
  H  H89  1  0.748400  0.706900  0.887100  1.0  0.1682
  H  H90  1  0.728100  0.596900  0.965000  1.0  0.1127
  H  H91  1  0.671300  0.457700  0.963300  1.0  0.1171
  H  H92  1  0.462700  0.445400  0.817100  1.0  0.0944
  H  H93  1  0.515600  0.586300  0.819500  1.0  0.0985
  H  H94  1  0.482000  0.336200  0.916800  1.0  0.1575
  H  H95  1  0.473200  0.317800  0.853800  1.0  0.1509
  H  H96  1  0.674300  0.278600  0.823300  1.0  0.133
  H  H97  1  0.654300  0.270700  0.976600  1.0  0.1345
  H  H98  1  0.827000  0.203300  0.959700  1.0  0.1338
  H  H99  1  0.950000  0.125800  0.907200  1.0  0.1421
  H  H100  1  0.069000  0.068300  0.852200  1.0  0.1191
  H  H101  1  0.065600  0.109100  0.768300  1.0  0.1365
  H  H102  1  0.764500  0.261600  0.713800  1.0  0.118
  H  H103  1  0.082800  0.194800  0.698600  1.0  0.1335
  H  H104  1  0.003900  0.262700  0.622500  1.0  0.108
  H  H105  1  0.697900  0.314400  0.625700  1.0  0.1677
  H  H106  1  0.769400  0.290800  0.580700  1.0  0.1658
  H  H107  1  0.699200  0.426400  0.551800  1.0  0.131
  H  H108  1  0.742800  0.564700  0.553000  1.0  0.1164
  H  H109  1  0.989400  0.575900  0.687800  1.0  0.0975
  H  H110  1  0.942000  0.437900  0.689600  1.0  0.1114
  H  H111  1  0.960500  0.704200  0.653900  1.0  0.1533
  H  H112  1  0.946300  0.685200  0.590800  1.0  0.1573
  C  C113  1  0.705300  0.107800  0.060300  1.0  0.5727
  C  C114  1  0.596600  0.051500  0.030200  1.0  -0.1555
  C  C115  1  0.588400  0.963100  0.032100  1.0  -0.039
  C  C116  1  0.509400  0.087900  0.998400  1.0  -0.1666
  C  C117  1  0.818900  0.314100  0.214200  1.0  0.5758
  C  C118  1  0.814000  0.412100  0.221700  1.0  -0.0923
  C  C119  1  0.757700  0.453600  0.260500  1.0  -0.0486
  C  C120  1  0.857500  0.455500  0.186100  1.0  -0.0531
  C  C121  1  0.959400  0.346600  0.044300  1.0  0.6192
  C  C122  1  0.979500  0.425300  0.020700  1.0  -0.1006
  C  C123  1  0.940400  0.502500  0.042200  1.0  -0.0671
  C  C124  1  0.040500  0.425400  0.978600  1.0  -0.0609
  C  C125  1  0.168100  0.086800  0.089000  1.0  0.6861
  C  C126  1  0.247100  0.041500  0.127600  1.0  -0.1167
  C  C127  1  0.232500  0.045300  0.180600  1.0  -0.0108
  C  C128  1  0.298100  0.999500  0.215700  1.0  -0.0458
  C  C129  1  0.383100  0.950200  0.198400  1.0  -0.0921
  C  C130  1  0.402600  0.948900  0.146000  1.0  -0.0721
  C  C131  1  0.334600  0.993900  0.110200  1.0  -0.0641
  C  C132  1  0.452900  0.900400  0.236600  1.0  0.6793
  C  C133  1  0.141800  0.326300  0.207100  1.0  0.5754
  C  C134  1  0.216400  0.410000  0.228000  1.0  -0.1403
  C  C135  1  0.315400  0.414900  0.269700  1.0  -0.0988
  C  C136  1  0.384200  0.492100  0.288400  1.0  -0.0581
  C  C137  1  0.357500  0.565000  0.266300  1.0  -0.1164
  C  C138  1  0.256600  0.558300  0.224900  1.0  -0.0985
  C  C139  1  0.187400  0.481900  0.205600  1.0  -0.0543
  C  C140  1  0.435600  0.645800  0.284100  1.0  0.6486
  C  C141  1  0.758700  0.677000  0.223200  1.0  0.6705
  C  C142  1  0.782100  0.585300  0.226900  1.0  -0.0906
  C  C143  1  0.847300  0.542500  0.190200  1.0  -0.078
  C  C144  1  0.741500  0.541900  0.263100  1.0  -0.0483
  C  C145  1  0.551100  0.896600  0.405500  1.0  0.6308
  C  C146  1  0.523700  0.949600  0.454900  1.0  -0.0997
  C  C147  1  0.427600  0.925700  0.474700  1.0  -0.0738
  C  C148  1  0.597800  0.024300  0.480400  1.0  -0.0646
  C  C149  1  0.294700  0.892200  0.939700  1.0  0.5696
  C  C150  1  0.403400  0.948500  0.969800  1.0  -0.1571
  C  C151  1  0.411600  0.036900  0.967900  1.0  -0.0431
  C  C152  1  0.490600  0.912100  0.001600  1.0  -0.1662
  C  C153  1  0.181100  0.685900  0.785800  1.0  0.5737
  C  C154  1  0.186000  0.587900  0.778300  1.0  -0.0915
  C  C155  1  0.242300  0.546400  0.739500  1.0  -0.0491
  C  C156  1  0.142500  0.544500  0.813900  1.0  -0.0514
  C  C157  1  0.040600  0.653400  0.955700  1.0  0.6187
  C  C158  1  0.020500  0.574700  0.979300  1.0  -0.1
  C  C159  1  0.059600  0.497500  0.957800  1.0  -0.0677
  C  C160  1  0.959500  0.574600  0.021400  1.0  -0.0621
  C  C161  1  0.831900  0.913200  0.911000  1.0  0.6846
  C  C162  1  0.752900  0.958500  0.872400  1.0  -0.1183
  C  C163  1  0.767500  0.954700  0.819400  1.0  -0.0114
  C  C164  1  0.701900  0.000500  0.784300  1.0  -0.0472
  C  C165  1  0.616900  0.049800  0.801600  1.0  -0.0937
  C  C166  1  0.597400  0.051100  0.854000  1.0  -0.0699
  C  C167  1  0.665400  0.006100  0.889800  1.0  -0.0633
  C  C168  1  0.547100  0.099600  0.763400  1.0  0.6791
  C  C169  1  0.858200  0.673700  0.792900  1.0  0.576
  C  C170  1  0.783600  0.590000  0.772000  1.0  -0.1416
  C  C171  1  0.684600  0.585100  0.730300  1.0  -0.1
  C  C172  1  0.615800  0.507900  0.711600  1.0  -0.0591
  C  C173  1  0.642500  0.435000  0.733700  1.0  -0.1157
  C  C174  1  0.743400  0.441700  0.775100  1.0  -0.0988
  C  C175  1  0.812600  0.518100  0.794400  1.0  -0.055
  C  C176  1  0.564400  0.354200  0.715900  1.0  0.649
  C  C177  1  0.241300  0.323000  0.776800  1.0  0.6704
  C  C178  1  0.217900  0.414700  0.773100  1.0  -0.0928
  C  C179  1  0.152700  0.457500  0.809800  1.0  -0.0778
  C  C180  1  0.258500  0.458100  0.736900  1.0  -0.0506
  C  C181  1  0.448900  0.103400  0.594500  1.0  0.6321
  C  C182  1  0.476300  0.050400  0.545100  1.0  -0.0998
  C  C183  1  0.572400  0.074300  0.525300  1.0  -0.0733
  C  C184  1  0.402200  0.975700  0.519600  1.0  -0.0681
  C  C185  1  0.253600  0.244100  0.348100  1.0  0.1058
  C  C186  1  0.250100  0.239900  0.433300  1.0  -0.0292
  C  C187  1  0.342700  0.198700  0.422100  1.0  -0.0569
  C  C188  1  0.427800  0.169700  0.337500  1.0  0.229
  C  C189  1  0.510300  0.115400  0.356900  1.0  -0.1346
  C  C190  1  0.586000  0.086500  0.324700  1.0  -0.0793
  C  C191  1  0.582300  0.112800  0.275000  1.0  -0.1513
  C  C192  1  0.500300  0.168600  0.261100  1.0  0.2993
  C  C193  1  0.391100  0.232100  0.186100  1.0  0.1209
  C  C194  1  0.570400  0.197900  0.176000  1.0  -0.1127
  C  C195  1  0.522300  0.233600  0.133700  1.0  -0.0522
  C  C196  1  0.328600  0.297100  0.104000  1.0  -0.1601
  C  C197  1  0.372100  0.392100  0.108000  1.0  0.0403
  C  C198  1  0.325400  0.432000  0.065000  1.0  -0.0488
  C  C199  1  0.359400  0.518500  0.066300  1.0  -0.0626
  C  C200  1  0.436100  0.565000  0.110800  1.0  0.0655
  C  C201  1  0.483700  0.525600  0.153000  1.0  -0.007
  C  C202  1  0.450900  0.437900  0.151500  1.0  -0.0585
  C  C203  1  0.474700  0.659800  0.111600  1.0  -0.1401
  C  C204  1  0.309000  0.730900  0.141200  1.0  0.1066
  C  C205  1  0.319000  0.735900  0.055700  1.0  -0.0776
  C  C206  1  0.224200  0.773200  0.064900  1.0  -0.1215
  C  C207  1  0.133100  0.805900  0.147800  1.0  0.237
  C  C208  1  0.052800  0.861300  0.127200  1.0  -0.1275
  C  C209  1  0.981300  0.894000  0.159300  1.0  -0.1097
  C  C210  1  0.984100  0.870700  0.209500  1.0  -0.1102
  C  C211  1  0.065000  0.815600  0.225500  1.0  0.2881
  C  C212  1  0.167100  0.746000  0.299100  1.0  0.0961
  C  C213  1  0.989300  0.783600  0.307500  1.0  -0.0783
  C  C214  1  0.033500  0.745900  0.349700  1.0  -0.0182
  C  C215  1  0.224400  0.681000  0.382400  1.0  -0.1715
  C  C216  1  0.185400  0.588000  0.379900  1.0  0.0172
  C  C217  1  0.242500  0.545100  0.420000  1.0  -0.0657
  C  C218  1  0.215200  0.459100  0.419500  1.0  -0.0911
  C  C219  1  0.129100  0.411700  0.379500  1.0  0.0806
  C  C220  1  0.070400  0.453000  0.339600  1.0  -0.034
  C  C221  1  0.098300  0.539200  0.338700  1.0  -0.0794
  C  C222  1  0.094200  0.318400  0.379900  1.0  -0.1516
  C  C223  1  0.930400  0.655300  0.459800  1.0  0.6422
  C  C224  1  0.967200  0.574700  0.480000  1.0  -0.1167
  C  C225  1  0.909100  0.495100  0.455700  1.0  -0.0656
  C  C226  1  0.059800  0.577100  0.524000  1.0  -0.0714
  C  C227  1  0.069600  0.344700  0.540200  1.0  0.6427
  C  C228  1  0.032800  0.425300  0.520000  1.0  -0.1164
  C  C229  1  0.090900  0.504900  0.544300  1.0  -0.0653
  C  C230  1  0.940200  0.422900  0.476000  1.0  -0.0699
  C  C231  1  0.746400  0.755900  0.651900  1.0  0.1032
  C  C232  1  0.749900  0.760100  0.566700  1.0  -0.0286
  C  C233  1  0.657300  0.801300  0.577900  1.0  -0.0573
  C  C234  1  0.572200  0.830300  0.662500  1.0  0.23
  C  C235  1  0.489700  0.884600  0.643100  1.0  -0.1324
  C  C236  1  0.414000  0.913500  0.675300  1.0  -0.0802
  C  C237  1  0.417700  0.887200  0.725000  1.0  -0.1544
  C  C238  1  0.499700  0.831400  0.738900  1.0  0.3009
  C  C239  1  0.608900  0.767900  0.813900  1.0  0.1206
  C  C240  1  0.429600  0.802100  0.824000  1.0  -0.1113
  C  C241  1  0.477700  0.766400  0.866300  1.0  -0.0522
  C  C242  1  0.671400  0.702900  0.896000  1.0  -0.1612
  C  C243  1  0.627900  0.607900  0.892000  1.0  0.0417
  C  C244  1  0.674600  0.568000  0.935000  1.0  -0.0489
  C  C245  1  0.640600  0.481500  0.933700  1.0  -0.0626
  C  C246  1  0.563900  0.435000  0.889200  1.0  0.0647
  C  C247  1  0.516300  0.474400  0.847000  1.0  -0.0076
  C  C248  1  0.549100  0.562100  0.848500  1.0  -0.0586
  C  C249  1  0.525300  0.340200  0.888400  1.0  -0.1401
  C  C250  1  0.691000  0.269100  0.858800  1.0  0.108
  C  C251  1  0.681000  0.264100  0.944300  1.0  -0.0778
  C  C252  1  0.775800  0.226800  0.935100  1.0  -0.1209
  C  C253  1  0.866900  0.194100  0.852200  1.0  0.2364
  C  C254  1  0.947200  0.138700  0.872800  1.0  -0.1273
  C  C255  1  0.018700  0.106000  0.840700  1.0  -0.1068
  C  C256  1  0.015900  0.129300  0.790500  1.0  -0.1094
  C  C257  1  0.935000  0.184400  0.774500  1.0  0.2879
  C  C258  1  0.832900  0.254000  0.700900  1.0  0.0953
  C  C259  1  0.010700  0.216400  0.692500  1.0  -0.0755
  C  C260  1  0.966500  0.254100  0.650300  1.0  -0.0186
  C  C261  1  0.775600  0.319000  0.617600  1.0  -0.1695
  C  C262  1  0.814600  0.412000  0.620100  1.0  0.0177
  C  C263  1  0.757500  0.454900  0.580000  1.0  -0.0682
  C  C264  1  0.784800  0.540900  0.580500  1.0  -0.0909
  C  C265  1  0.870900  0.588300  0.620500  1.0  0.0807
  C  C266  1  0.929600  0.547000  0.660400  1.0  -0.0345
  C  C267  1  0.901700  0.460800  0.661300  1.0  -0.0801
  C  C268  1  0.905800  0.681600  0.620100  1.0  -0.1523
  N  N269  1  0.197100  0.267900  0.386400  1.0  0.0481
  N  N270  1  0.346600  0.203000  0.368300  1.0  -0.0421
  N  N271  1  0.423700  0.197300  0.290200  1.0  -0.488
  N  N272  1  0.485800  0.197300  0.209600  1.0  -0.072
  N  N273  1  0.410500  0.254900  0.140600  1.0  -0.038
  N  N274  1  0.370300  0.708900  0.103200  1.0  -0.0173
  N  N275  1  0.217100  0.770000  0.118400  1.0  -0.085
  N  N276  1  0.137500  0.780400  0.195800  1.0  -0.5255
  N  N277  1  0.072600  0.783200  0.275600  1.0  -0.0822
  N  N278  1  0.142800  0.722700  0.344400  1.0  -0.018
  N  N279  1  0.802900  0.732100  0.613600  1.0  0.0497
  N  N280  1  0.653400  0.797000  0.631700  1.0  -0.0418
  N  N281  1  0.576300  0.802700  0.709800  1.0  -0.486
  N  N282  1  0.514200  0.802700  0.790400  1.0  -0.0708
  N  N283  1  0.589500  0.745100  0.859400  1.0  -0.038
  N  N284  1  0.629700  0.291100  0.896800  1.0  -0.0182
  N  N285  1  0.782900  0.230000  0.881600  1.0  -0.0861
  N  N286  1  0.862500  0.219600  0.804200  1.0  -0.5275
  N  N287  1  0.927400  0.216800  0.724400  1.0  -0.0822
  N  N288  1  0.857200  0.277300  0.655600  1.0  -0.0169
  O  O289  1  0.926300  0.102600  0.013200  1.0  -0.2125
  O  O290  1  0.781000  0.080800  0.096300  1.0  -0.6169
  O  O291  1  0.972000  0.153000  0.196700  1.0  -0.2267
  O  O292  1  0.724700  0.182700  0.049300  1.0  -0.606
  O  O293  1  0.812500  0.275500  0.164000  1.0  -0.6661
  O  O294  1  0.762700  0.911600  0.297700  1.0  -0.2727
  O  O295  1  0.760000  0.779200  0.379500  1.0  -0.2228
  O  O296  1  0.830200  0.275600  0.254300  1.0  -0.5442
  O  O297  1  0.022100  0.284600  0.038100  1.0  -0.6252
  O  O298  1  0.876300  0.342100  0.070200  1.0  -0.6412
  O  O299  1  0.114700  0.145700  0.110000  1.0  -0.6888
  O  O300  1  0.158800  0.062000  0.038200  1.0  -0.5748
  O  O301  1  0.436700  0.903300  0.284300  1.0  -0.6372
  O  O302  1  0.528800  0.853800  0.219400  1.0  -0.6172
  O  O303  1  0.063100  0.319800  0.163600  1.0  -0.6712
  O  O304  1  0.160200  0.264600  0.233400  1.0  -0.5632
  O  O305  1  0.409000  0.710400  0.260800  1.0  -0.626
  O  O306  1  0.526700  0.653100  0.321400  1.0  -0.6458
  O  O307  1  0.694000  0.711100  0.253400  1.0  -0.7481
  O  O308  1  0.797100  0.710200  0.188200  1.0  -0.5623
  O  O309  1  0.494300  0.824100  0.385500  1.0  -0.6025
  O  O310  1  0.630100  0.926000  0.383900  1.0  -0.6458
  O  O311  1  0.073700  0.897400  0.986800  1.0  -0.2121
  O  O312  1  0.219000  0.919200  0.903700  1.0  -0.6209
  O  O313  1  0.028000  0.847000  0.803300  1.0  -0.2275
  O  O314  1  0.275300  0.817300  0.950700  1.0  -0.6062
  O  O315  1  0.187500  0.724500  0.836000  1.0  -0.6671
  O  O316  1  0.237300  0.088400  0.702300  1.0  -0.2734
  O  O317  1  0.240000  0.220800  0.620500  1.0  -0.2246
  O  O318  1  0.169800  0.724400  0.745700  1.0  -0.5445
  O  O319  1  0.977900  0.715400  0.961900  1.0  -0.6257
  O  O320  1  0.123700  0.657900  0.929800  1.0  -0.6406
  O  O321  1  0.885300  0.854300  0.890000  1.0  -0.6897
  O  O322  1  0.841200  0.938000  0.961800  1.0  -0.5754
  O  O323  1  0.563300  0.096700  0.715700  1.0  -0.6351
  O  O324  1  0.471200  0.146200  0.780600  1.0  -0.6158
  O  O325  1  0.936900  0.680200  0.836400  1.0  -0.67
  O  O326  1  0.839800  0.735400  0.766600  1.0  -0.5639
  O  O327  1  0.591000  0.289600  0.739200  1.0  -0.6274
  O  O328  1  0.473300  0.346900  0.678600  1.0  -0.6466
  O  O329  1  0.306000  0.288900  0.746600  1.0  -0.7479
  O  O330  1  0.202900  0.289800  0.811800  1.0  -0.5636
  O  O331  1  0.505700  0.175900  0.614500  1.0  -0.6017
  O  O332  1  0.369900  0.074000  0.616100  1.0  -0.6425
  O  O333  1  0.986200  0.726700  0.483100  1.0  -0.4855
  O  O334  1  0.844000  0.647100  0.420400  1.0  -0.5221
  O  O335  1  0.013800  0.273300  0.516900  1.0  -0.4868
  O  O336  1  0.156000  0.352900  0.579600  1.0  -0.5229
