# generated using pymatgen
data_TbH27C39N5O11
_symmetry_space_group_name_H-M   'P 1'
_cell_length_a   11.35000000
_cell_length_b   23.89600000
_cell_length_c   32.79300000
_cell_angle_alpha   97.64000000
_cell_angle_beta   90.00000000
_cell_angle_gamma   90.00000000
_symmetry_Int_Tables_number   1
_chemical_formula_structural   TbH27C39N5O11
_chemical_formula_sum   'Tb8 H216 C312 N40 O88'
_cell_volume   8815.15107906
_cell_formula_units_Z   8
loop_
 _symmetry_equiv_pos_site_id
 _symmetry_equiv_pos_as_xyz
  1  'x, y, z'
loop_
 _atom_site_type_symbol
 _atom_site_label
 _atom_site_symmetry_multiplicity
 _atom_site_fract_x
 _atom_site_fract_y
 _atom_site_fract_z
 _atom_site_occupancy
 _atom_site_charge
  Tb  Tb1  1  0.241030  0.414610  0.625550  1.0  2.2557
  Tb  Tb2  1  0.734240  0.125540  0.398870  1.0  2.2504
  Tb  Tb3  1  0.741030  0.085390  0.874450  1.0  2.2583
  Tb  Tb4  1  0.234240  0.374460  0.101130  1.0  2.2499
  Tb  Tb5  1  0.758970  0.585390  0.374450  1.0  2.2582
  Tb  Tb6  1  0.265760  0.874460  0.601130  1.0  2.2561
  Tb  Tb7  1  0.258970  0.914610  0.125550  1.0  2.2553
  Tb  Tb8  1  0.765760  0.625540  0.898870  1.0  2.2567
  H  H9  1  0.350700  0.575800  0.733500  1.0  0.1101
  H  H10  1  0.556300  0.441400  0.729000  1.0  0.1175
  H  H11  1  0.347800  0.437500  0.483300  1.0  0.0964
  H  H12  1  0.564600  0.518300  0.567300  1.0  0.1105
  H  H13  1  0.147400  0.446500  0.523900  1.0  0.092
  H  H14  1  0.882200  0.557200  0.545400  1.0  0.0997
  H  H15  1  0.121000  0.338500  0.521100  1.0  0.0808
  H  H16  1  0.064000  0.317700  0.455700  1.0  0.1006
  H  H17  1  0.795500  0.227500  0.492800  1.0  0.1035
  H  H18  1  0.854900  0.250000  0.559700  1.0  0.1157
  H  H19  1  0.544400  0.215000  0.589000  1.0  0.1085
  H  H20  1  0.603900  0.183200  0.522600  1.0  0.0922
  H  H21  1  0.334500  0.266300  0.480200  1.0  0.0916
  H  H22  1  0.273700  0.293500  0.546400  1.0  0.0966
  H  H23  1  0.469600  0.621200  0.783900  1.0  0.0967
  H  H24  1  0.671400  0.487500  0.781200  1.0  0.0891
  H  H25  1  0.056200  0.997200  0.432100  1.0  0.0904
  H  H26  1  0.855900  0.062400  0.527700  1.0  0.1172
  H  H27  1  0.643600  0.060300  0.484400  1.0  0.0855
  H  H28  1  0.385200  0.955400  0.448700  1.0  0.0995
  H  H29  1  0.850700  0.924200  0.766500  1.0  0.1092
  H  H30  1  0.056300  0.058600  0.771000  1.0  0.1171
  H  H31  1  0.847800  0.062500  0.016700  1.0  0.0966
  H  H32  1  0.064600  0.981700  0.932700  1.0  0.1098
  H  H33  1  0.647400  0.053500  0.976100  1.0  0.0921
  H  H34  1  0.382200  0.942800  0.954600  1.0  0.0992
  H  H35  1  0.621000  0.161500  0.978900  1.0  0.0807
  H  H36  1  0.564000  0.182300  0.044300  1.0  0.0999
  H  H37  1  0.295500  0.272500  0.007200  1.0  0.1037
  H  H38  1  0.354900  0.250000  0.940300  1.0  0.1156
  H  H39  1  0.044400  0.285000  0.911000  1.0  0.1095
  H  H40  1  0.103900  0.316800  0.977400  1.0  0.0927
  H  H41  1  0.834500  0.233700  0.019800  1.0  0.0909
  H  H42  1  0.773700  0.206500  0.953600  1.0  0.0964
  H  H43  1  0.969600  0.878800  0.716100  1.0  0.0991
  H  H44  1  0.171400  0.012500  0.718800  1.0  0.0895
  H  H45  1  0.556200  0.502800  0.067900  1.0  0.0907
  H  H46  1  0.355900  0.437600  0.972300  1.0  0.1173
  H  H47  1  0.143600  0.439700  0.015600  1.0  0.0856
  H  H48  1  0.885200  0.544600  0.051300  1.0  0.0999
  H  H49  1  0.649300  0.424200  0.266500  1.0  0.1099
  H  H50  1  0.443700  0.558600  0.271000  1.0  0.1176
  H  H51  1  0.652200  0.562500  0.516700  1.0  0.0963
  H  H52  1  0.435400  0.481700  0.432700  1.0  0.1098
  H  H53  1  0.852600  0.553500  0.476100  1.0  0.094
  H  H54  1  0.117800  0.442800  0.454600  1.0  0.1001
  H  H55  1  0.879000  0.661500  0.478900  1.0  0.0813
  H  H56  1  0.936000  0.682300  0.544300  1.0  0.1004
  H  H57  1  0.204500  0.772500  0.507200  1.0  0.1034
  H  H58  1  0.145100  0.750000  0.440300  1.0  0.1159
  H  H59  1  0.455600  0.785000  0.411000  1.0  0.1092
  H  H60  1  0.396100  0.816800  0.477400  1.0  0.0926
  H  H61  1  0.665500  0.733700  0.519800  1.0  0.0911
  H  H62  1  0.726300  0.706500  0.453600  1.0  0.0967
  H  H63  1  0.530400  0.378800  0.216100  1.0  0.0992
  H  H64  1  0.328600  0.512500  0.218800  1.0  0.0887
  H  H65  1  0.943800  0.002800  0.567900  1.0  0.0903
  H  H66  1  0.144100  0.937600  0.472300  1.0  0.1175
  H  H67  1  0.356400  0.939700  0.515600  1.0  0.0848
  H  H68  1  0.614800  0.044600  0.551300  1.0  0.1005
  H  H69  1  0.149300  0.075800  0.233500  1.0  0.1104
  H  H70  1  0.943700  0.941400  0.229000  1.0  0.1179
  H  H71  1  0.152200  0.937500  0.983300  1.0  0.0963
  H  H72  1  0.935400  0.018300  0.067300  1.0  0.1101
  H  H73  1  0.352600  0.946500  0.023900  1.0  0.0937
  H  H74  1  0.617800  0.057200  0.045400  1.0  0.1
  H  H75  1  0.379000  0.838500  0.021100  1.0  0.0812
  H  H76  1  0.436000  0.817700  0.955700  1.0  0.1005
  H  H77  1  0.704500  0.727500  0.992800  1.0  0.1034
  H  H78  1  0.645100  0.750000  0.059700  1.0  0.1157
  H  H79  1  0.955600  0.715000  0.089000  1.0  0.11
  H  H80  1  0.896100  0.683200  0.022600  1.0  0.0925
  H  H81  1  0.165500  0.766300  0.980200  1.0  0.0919
  H  H82  1  0.226300  0.793500  0.046400  1.0  0.0968
  H  H83  1  0.030400  0.121200  0.283900  1.0  0.0967
  H  H84  1  0.828600  0.987500  0.281200  1.0  0.0887
  H  H85  1  0.443800  0.497200  0.932100  1.0  0.0906
  H  H86  1  0.644100  0.562400  0.027700  1.0  0.1171
  H  H87  1  0.856400  0.560300  0.984400  1.0  0.0854
  H  H88  1  0.114800  0.455400  0.948700  1.0  0.0999
  H  H89  1  0.173800  0.628000  0.580400  1.0  0.1021
  H  H90  1  0.239600  0.569900  0.575100  1.0  0.1013
  H  H91  1  0.415500  0.564300  0.620500  1.0  0.0936
  H  H92  1  0.313400  0.715800  0.611300  1.0  0.1004
  H  H93  1  0.473600  0.722100  0.660800  1.0  0.1264
  H  H94  1  0.611400  0.689300  0.704900  1.0  0.1225
  H  H95  1  0.780800  0.655300  0.733900  1.0  0.111
  H  H96  1  0.837400  0.561700  0.711700  1.0  0.1119
  H  H97  1  0.581400  0.466900  0.627700  1.0  0.1052
  H  H98  1  0.890300  0.473100  0.681900  1.0  0.113
  H  H99  1  0.862300  0.379500  0.648900  1.0  0.1104
  H  H100  1  0.697000  0.325700  0.600800  1.0  0.1109
  H  H101  1  0.575100  0.356300  0.600300  1.0  0.115
  H  H102  1  0.838700  0.405900  0.561100  1.0  0.1002
  H  H103  1  0.132000  0.584400  0.505900  1.0  0.0777
  H  H104  1  0.532300  0.337600  0.532300  1.0  0.0773
  H  H105  1  0.438100  0.655000  0.538100  1.0  0.117
  H  H106  1  0.826200  0.372000  0.419600  1.0  0.1026
  H  H107  1  0.760400  0.430100  0.424900  1.0  0.1008
  H  H108  1  0.584500  0.435700  0.379500  1.0  0.0929
  H  H109  1  0.686600  0.284200  0.388700  1.0  0.0992
  H  H110  1  0.526400  0.277900  0.339200  1.0  0.1259
  H  H111  1  0.388600  0.310700  0.295100  1.0  0.1236
  H  H112  1  0.219200  0.344700  0.266100  1.0  0.111
  H  H113  1  0.162600  0.438300  0.288300  1.0  0.111
  H  H114  1  0.418600  0.533100  0.372300  1.0  0.1059
  H  H115  1  0.109700  0.526900  0.318100  1.0  0.1132
  H  H116  1  0.137700  0.620500  0.351100  1.0  0.1115
  H  H117  1  0.303000  0.674300  0.399200  1.0  0.1114
  H  H118  1  0.424900  0.643700  0.399700  1.0  0.1156
  H  H119  1  0.161300  0.594100  0.438900  1.0  0.1002
  H  H120  1  0.868000  0.415600  0.494100  1.0  0.0785
  H  H121  1  0.467700  0.662400  0.467700  1.0  0.0777
  H  H122  1  0.561900  0.345000  0.461900  1.0  0.1165
  H  H123  1  0.187400  0.195300  0.420800  1.0  0.117
  H  H124  1  0.064100  0.165900  0.421000  1.0  0.107
  H  H125  1  0.062300  0.058100  0.381300  1.0  0.1096
  H  H126  1  0.344900  0.148100  0.363700  1.0  0.1085
  H  H127  1  0.363600  0.063800  0.322400  1.0  0.0953
  H  H128  1  0.312800  0.979700  0.285200  1.0  0.1088
  H  H129  1  0.255400  0.884900  0.256300  1.0  0.1017
  H  H130  1  0.091800  0.844700  0.282600  1.0  0.1153
  H  H131  1  0.901500  0.958100  0.382200  1.0  0.1159
  H  H132  1  0.965100  0.806200  0.322100  1.0  0.1119
  H  H133  1  0.795000  0.798100  0.366000  1.0  0.1122
  H  H134  1  0.658600  0.880700  0.412100  1.0  0.1197
  H  H135  1  0.720300  0.939400  0.422700  1.0  0.1136
  H  H136  1  0.626200  0.909300  0.483200  1.0  0.0875
  H  H137  1  0.671200  0.895200  0.554300  1.0  0.1119
  H  H138  1  0.032300  0.174300  0.489500  1.0  0.0907
  H  H139  1  0.929700  0.852400  0.448900  1.0  0.0717
  H  H140  1  0.812600  0.804700  0.579200  1.0  0.1185
  H  H141  1  0.935900  0.834100  0.579000  1.0  0.1094
  H  H142  1  0.937700  0.941900  0.618700  1.0  0.1101
  H  H143  1  0.655100  0.851900  0.636300  1.0  0.1082
  H  H144  1  0.636400  0.936200  0.677600  1.0  0.0958
  H  H145  1  0.687200  0.020300  0.714800  1.0  0.1088
  H  H146  1  0.744600  0.115100  0.743700  1.0  0.1012
  H  H147  1  0.908200  0.155300  0.717400  1.0  0.1165
  H  H148  1  0.098500  0.041900  0.617800  1.0  0.1151
  H  H149  1  0.034900  0.193800  0.677900  1.0  0.1118
  H  H150  1  0.205000  0.201900  0.634000  1.0  0.1121
  H  H151  1  0.341400  0.119300  0.587900  1.0  0.1205
  H  H152  1  0.279700  0.060600  0.577300  1.0  0.113
  H  H153  1  0.373800  0.090700  0.516800  1.0  0.0883
  H  H154  1  0.328800  0.104800  0.445700  1.0  0.1128
  H  H155  1  0.967700  0.825700  0.510500  1.0  0.0919
  H  H156  1  0.070300  0.147600  0.551100  1.0  0.0709
  H  H157  1  0.673800  0.872000  0.919600  1.0  0.1009
  H  H158  1  0.739600  0.930100  0.924900  1.0  0.1012
  H  H159  1  0.915500  0.935700  0.879500  1.0  0.093
  H  H160  1  0.813400  0.784200  0.888700  1.0  0.0991
  H  H161  1  0.973600  0.777900  0.839200  1.0  0.1259
  H  H162  1  0.111400  0.810700  0.795100  1.0  0.1232
  H  H163  1  0.280800  0.844700  0.766100  1.0  0.1112
  H  H164  1  0.337400  0.938300  0.788300  1.0  0.1119
  H  H165  1  0.081400  0.033100  0.872300  1.0  0.105
  H  H166  1  0.390300  0.026900  0.818100  1.0  0.1133
  H  H167  1  0.362300  0.120500  0.851100  1.0  0.1116
  H  H168  1  0.197000  0.174300  0.899200  1.0  0.1112
  H  H169  1  0.075100  0.143700  0.899700  1.0  0.1134
  H  H170  1  0.338700  0.094100  0.938900  1.0  0.1008
  H  H171  1  0.632000  0.915600  0.994100  1.0  0.0783
  H  H172  1  0.032300  0.162400  0.967700  1.0  0.0773
  H  H173  1  0.938100  0.845000  0.961900  1.0  0.1171
  H  H174  1  0.326200  0.128000  0.080400  1.0  0.1014
  H  H175  1  0.260400  0.069900  0.075100  1.0  0.1012
  H  H176  1  0.084500  0.064300  0.120500  1.0  0.0936
  H  H177  1  0.186600  0.215800  0.111300  1.0  0.1001
  H  H178  1  0.026400  0.222100  0.160800  1.0  0.1263
  H  H179  1  0.888600  0.189300  0.204900  1.0  0.1228
  H  H180  1  0.719200  0.155300  0.233900  1.0  0.1116
  H  H181  1  0.662600  0.061700  0.211700  1.0  0.1116
  H  H182  1  0.918600  0.966900  0.127700  1.0  0.1058
  H  H183  1  0.609700  0.973100  0.181900  1.0  0.113
  H  H184  1  0.637700  0.879500  0.148900  1.0  0.1109
  H  H185  1  0.803000  0.825700  0.100800  1.0  0.1112
  H  H186  1  0.924900  0.856300  0.100300  1.0  0.1166
  H  H187  1  0.661300  0.905900  0.061100  1.0  0.0998
  H  H188  1  0.368000  0.084400  0.005900  1.0  0.0782
  H  H189  1  0.967700  0.837600  0.032300  1.0  0.0779
  H  H190  1  0.061900  0.155000  0.038100  1.0  0.1165
  H  H191  1  0.687400  0.304700  0.079200  1.0  0.1181
  H  H192  1  0.564100  0.334100  0.079000  1.0  0.1079
  H  H193  1  0.562300  0.441900  0.118700  1.0  0.1099
  H  H194  1  0.844900  0.351900  0.136300  1.0  0.1077
  H  H195  1  0.863600  0.436200  0.177600  1.0  0.0955
  H  H196  1  0.812800  0.520300  0.214800  1.0  0.1088
  H  H197  1  0.755400  0.615100  0.243700  1.0  0.1009
  H  H198  1  0.591800  0.655300  0.217400  1.0  0.116
  H  H199  1  0.401500  0.541900  0.117800  1.0  0.1156
  H  H200  1  0.465100  0.693800  0.177900  1.0  0.1117
  H  H201  1  0.295000  0.701900  0.134000  1.0  0.1124
  H  H202  1  0.158600  0.619300  0.087900  1.0  0.1212
  H  H203  1  0.220300  0.560600  0.077300  1.0  0.113
  H  H204  1  0.126200  0.590700  0.016800  1.0  0.0875
  H  H205  1  0.171200  0.604800  0.945700  1.0  0.1122
  H  H206  1  0.532300  0.325700  0.010500  1.0  0.0908
  H  H207  1  0.429700  0.647600  0.051100  1.0  0.0718
  H  H208  1  0.312600  0.695300  0.920800  1.0  0.1176
  H  H209  1  0.435900  0.665900  0.921000  1.0  0.1087
  H  H210  1  0.437700  0.558100  0.881300  1.0  0.1101
  H  H211  1  0.155100  0.648100  0.863700  1.0  0.1089
  H  H212  1  0.136400  0.563800  0.822400  1.0  0.0952
  H  H213  1  0.187200  0.479700  0.785200  1.0  0.1081
  H  H214  1  0.244600  0.384900  0.756300  1.0  0.1013
  H  H215  1  0.408200  0.344700  0.782600  1.0  0.1155
  H  H216  1  0.598500  0.458100  0.882200  1.0  0.1155
  H  H217  1  0.534900  0.306200  0.822100  1.0  0.112
  H  H218  1  0.705000  0.298100  0.866000  1.0  0.1125
  H  H219  1  0.841400  0.380700  0.912100  1.0  0.1212
  H  H220  1  0.779700  0.439400  0.922700  1.0  0.1131
  H  H221  1  0.873800  0.409300  0.983200  1.0  0.0881
  H  H222  1  0.828800  0.395200  0.054300  1.0  0.112
  H  H223  1  0.467700  0.674300  0.989500  1.0  0.0914
  H  H224  1  0.570300  0.352400  0.948900  1.0  0.0705
  C  C225  1  0.368400  0.472800  0.691200  1.0  0.6631
  C  C226  1  0.443500  0.506100  0.727300  1.0  -0.0985
  C  C227  1  0.416100  0.557800  0.742800  1.0  -0.0474
  C  C228  1  0.538300  0.478100  0.740600  1.0  -0.127
  C  C229  1  0.381700  0.447000  0.563100  1.0  0.6581
  C  C230  1  0.444200  0.475200  0.529900  1.0  -0.0911
  C  C231  1  0.408600  0.463200  0.490000  1.0  -0.0331
  C  C232  1  0.538200  0.511400  0.540300  1.0  -0.0934
  C  C233  1  0.041500  0.506500  0.588300  1.0  0.7248
  C  C234  1  0.019500  0.502400  0.543600  1.0  -0.0185
  C  C235  1  0.087800  0.468300  0.514600  1.0  -0.1336
  C  C236  1  0.930300  0.534100  0.527400  1.0  -0.1197
  C  C237  1  0.024700  0.317900  0.591300  1.0  0.7137
  C  C238  1  0.992100  0.298100  0.547800  1.0  -0.1504
  C  C239  1  0.054200  0.316400  0.515200  1.0  -0.1546
  C  C240  1  0.021100  0.303200  0.476100  1.0  -0.1517
  C  C241  1  0.924300  0.268200  0.464500  1.0  0.0375
  C  C242  1  0.862100  0.249900  0.498300  1.0  -0.1143
  C  C243  1  0.896500  0.263800  0.538700  1.0  -0.1244
  C  C244  1  0.890000  0.249000  0.422900  1.0  0.6743
  C  C245  1  0.374400  0.283900  0.618200  1.0  0.7142
  C  C246  1  0.405700  0.257900  0.574000  1.0  -0.017
  C  C247  1  0.501500  0.225000  0.566900  1.0  -0.0544
  C  C248  1  0.537000  0.205700  0.527000  1.0  -0.0472
  C  C249  1  0.473500  0.219600  0.493400  1.0  -0.0706
  C  C250  1  0.376700  0.254500  0.501800  1.0  -0.0796
  C  C251  1  0.341700  0.271900  0.541500  1.0  -0.1091
  C  C252  1  0.517100  0.199700  0.449300  1.0  0.6938
  C  C253  1  0.651300  0.588200  0.824600  1.0  0.625
  C  C254  1  0.584100  0.556800  0.788300  1.0  -0.0633
  C  C255  1  0.486300  0.584100  0.773000  1.0  -0.0613
  C  C256  1  0.606900  0.506000  0.771800  1.0  -0.0982
  C  C257  1  0.879800  0.066300  0.444900  1.0  0.629
  C  C258  1  0.942900  0.032600  0.474800  1.0  -0.1329
  C  C259  1  0.032600  0.997500  0.459300  1.0  -0.0602
  C  C260  1  0.912600  0.036700  0.516700  1.0  -0.1026
  C  C261  1  0.533800  0.023500  0.416500  1.0  0.7196
  C  C262  1  0.516800  0.011000  0.459700  1.0  -0.0901
  C  C263  1  0.584200  0.035800  0.490300  1.0  -0.0917
  C  C264  1  0.432300  0.974100  0.469400  1.0  -0.1094
  C  C265  1  0.868400  0.027200  0.808800  1.0  0.6642
  C  C266  1  0.943500  0.993900  0.772700  1.0  -0.0974
  C  C267  1  0.916100  0.942200  0.757200  1.0  -0.0455
  C  C268  1  0.038300  0.021900  0.759400  1.0  -0.1284
  C  C269  1  0.881700  0.053000  0.936900  1.0  0.6583
  C  C270  1  0.944200  0.024800  0.970100  1.0  -0.0914
  C  C271  1  0.908600  0.036800  0.010000  1.0  -0.0328
  C  C272  1  0.038200  0.988600  0.959700  1.0  -0.0923
  C  C273  1  0.541500  0.993500  0.911700  1.0  0.7237
  C  C274  1  0.519500  0.997600  0.956400  1.0  -0.0171
  C  C275  1  0.587800  0.031700  0.985400  1.0  -0.1337
  C  C276  1  0.430300  0.965900  0.972600  1.0  -0.1194
  C  C277  1  0.524700  0.182100  0.908700  1.0  0.709
  C  C278  1  0.492100  0.201900  0.952200  1.0  -0.1482
  C  C279  1  0.554200  0.183600  0.984800  1.0  -0.1548
  C  C280  1  0.521100  0.196800  0.023900  1.0  -0.1494
  C  C281  1  0.424300  0.231800  0.035500  1.0  0.0378
  C  C282  1  0.362100  0.250100  0.001700  1.0  -0.1134
  C  C283  1  0.396500  0.236200  0.961300  1.0  -0.1268
  C  C284  1  0.390000  0.251000  0.077100  1.0  0.674
  C  C285  1  0.874400  0.216100  0.881800  1.0  0.7133
  C  C286  1  0.905700  0.242100  0.926000  1.0  -0.0142
  C  C287  1  0.001500  0.275000  0.933100  1.0  -0.0553
  C  C288  1  0.037000  0.294300  0.973000  1.0  -0.0474
  C  C289  1  0.973500  0.280400  0.006600  1.0  -0.0709
  C  C290  1  0.876700  0.245500  0.998200  1.0  -0.0785
  C  C291  1  0.841700  0.228100  0.958500  1.0  -0.1091
  C  C292  1  0.017100  0.300300  0.050700  1.0  0.6942
  C  C293  1  0.151300  0.911800  0.675400  1.0  0.6256
  C  C294  1  0.084100  0.943200  0.711700  1.0  -0.0641
  C  C295  1  0.986300  0.915900  0.727000  1.0  -0.0645
  C  C296  1  0.106900  0.994000  0.728200  1.0  -0.0987
  C  C297  1  0.379800  0.433700  0.055100  1.0  0.6292
  C  C298  1  0.442900  0.467400  0.025200  1.0  -0.133
  C  C299  1  0.532600  0.502500  0.040700  1.0  -0.062
  C  C300  1  0.412600  0.463300  0.983300  1.0  -0.103
  C  C301  1  0.033800  0.476500  0.083500  1.0  0.7182
  C  C302  1  0.016800  0.489000  0.040300  1.0  -0.0908
  C  C303  1  0.084200  0.464200  0.009700  1.0  -0.092
  C  C304  1  0.932300  0.525900  0.030600  1.0  -0.1089
  C  C305  1  0.631600  0.527200  0.308800  1.0  0.6657
  C  C306  1  0.556500  0.493900  0.272700  1.0  -0.098
  C  C307  1  0.583900  0.442200  0.257200  1.0  -0.0463
  C  C308  1  0.461700  0.521900  0.259400  1.0  -0.129
  C  C309  1  0.618300  0.553000  0.436900  1.0  0.6602
  C  C310  1  0.555800  0.524800  0.470100  1.0  -0.0922
  C  C311  1  0.591400  0.536800  0.510000  1.0  -0.0333
  C  C312  1  0.461800  0.488600  0.459700  1.0  -0.0918
  C  C313  1  0.958500  0.493500  0.411700  1.0  0.7236
  C  C314  1  0.980500  0.497600  0.456400  1.0  -0.0171
  C  C315  1  0.912200  0.531700  0.485400  1.0  -0.1334
  C  C316  1  0.069700  0.465900  0.472600  1.0  -0.1207
  C  C317  1  0.975300  0.682100  0.408700  1.0  0.711
  C  C318  1  0.007900  0.701900  0.452200  1.0  -0.1488
  C  C319  1  0.945800  0.683600  0.484800  1.0  -0.1529
  C  C320  1  0.978900  0.696800  0.523900  1.0  -0.1494
  C  C321  1  0.075700  0.731800  0.535500  1.0  0.0373
  C  C322  1  0.137900  0.750100  0.501700  1.0  -0.1139
  C  C323  1  0.103500  0.736200  0.461300  1.0  -0.1278
  C  C324  1  0.110000  0.751000  0.577100  1.0  0.6739
  C  C325  1  0.625600  0.716100  0.381800  1.0  0.7125
  C  C326  1  0.594300  0.742100  0.426000  1.0  -0.0144
  C  C327  1  0.498500  0.775000  0.433100  1.0  -0.0528
  C  C328  1  0.463000  0.794300  0.473000  1.0  -0.0477
  C  C329  1  0.526500  0.780400  0.506600  1.0  -0.0707
  C  C330  1  0.623300  0.745500  0.498200  1.0  -0.0793
  C  C331  1  0.658300  0.728100  0.458500  1.0  -0.109
  C  C332  1  0.482900  0.800300  0.550700  1.0  0.6934
  C  C333  1  0.348700  0.411800  0.175400  1.0  0.6252
  C  C334  1  0.415900  0.443200  0.211700  1.0  -0.0639
  C  C335  1  0.513700  0.415900  0.227000  1.0  -0.0646
  C  C336  1  0.393100  0.494000  0.228200  1.0  -0.1001
  C  C337  1  0.120200  0.933700  0.555100  1.0  0.6286
  C  C338  1  0.057100  0.967400  0.525200  1.0  -0.1313
  C  C339  1  0.967400  0.002500  0.540700  1.0  -0.0641
  C  C340  1  0.087400  0.963300  0.483300  1.0  -0.1037
  C  C341  1  0.466200  0.976500  0.583500  1.0  0.718
  C  C342  1  0.483200  0.989000  0.540300  1.0  -0.091
  C  C343  1  0.415800  0.964200  0.509700  1.0  -0.0909
  C  C344  1  0.567700  0.025900  0.530600  1.0  -0.1092
  C  C345  1  0.131600  0.972800  0.191200  1.0  0.6651
  C  C346  1  0.056500  0.006100  0.227300  1.0  -0.0994
  C  C347  1  0.083900  0.057800  0.242800  1.0  -0.0474
  C  C348  1  0.961700  0.978100  0.240600  1.0  -0.1265
  C  C349  1  0.118300  0.947000  0.063100  1.0  0.6601
  C  C350  1  0.055800  0.975200  0.029900  1.0  -0.0921
  C  C351  1  0.091400  0.963200  0.990000  1.0  -0.0335
  C  C352  1  0.961800  0.011400  0.040300  1.0  -0.0932
  C  C353  1  0.458500  0.006500  0.088300  1.0  0.7264
  C  C354  1  0.480500  0.002400  0.043600  1.0  -0.0189
  C  C355  1  0.412200  0.968300  0.014600  1.0  -0.1337
  C  C356  1  0.569700  0.034100  0.027400  1.0  -0.1207
  C  C357  1  0.475300  0.817900  0.091300  1.0  0.7113
  C  C358  1  0.507900  0.798100  0.047800  1.0  -0.1504
  C  C359  1  0.445800  0.816400  0.015200  1.0  -0.1521
  C  C360  1  0.478900  0.803200  0.976100  1.0  -0.1514
  C  C361  1  0.575700  0.768200  0.964500  1.0  0.0368
  C  C362  1  0.637900  0.749900  0.998300  1.0  -0.1151
  C  C363  1  0.603500  0.763800  0.038700  1.0  -0.1254
  C  C364  1  0.610000  0.749000  0.922900  1.0  0.6736
  C  C365  1  0.125600  0.783900  0.118200  1.0  0.7134
  C  C366  1  0.094300  0.757900  0.074000  1.0  -0.0168
  C  C367  1  0.998500  0.725000  0.066900  1.0  -0.0533
  C  C368  1  0.963000  0.705700  0.027000  1.0  -0.0477
  C  C369  1  0.026500  0.719600  0.993400  1.0  -0.0707
  C  C370  1  0.123300  0.754500  0.001800  1.0  -0.0807
  C  C371  1  0.158300  0.771900  0.041500  1.0  -0.1087
  C  C372  1  0.982900  0.699700  0.949300  1.0  0.6934
  C  C373  1  0.848700  0.088200  0.324600  1.0  0.6236
  C  C374  1  0.915900  0.056800  0.288300  1.0  -0.0624
  C  C375  1  0.013700  0.084100  0.273000  1.0  -0.0602
  C  C376  1  0.893100  0.006000  0.271800  1.0  -0.0989
  C  C377  1  0.620200  0.566300  0.944900  1.0  0.6284
  C  C378  1  0.557100  0.532600  0.974800  1.0  -0.1317
  C  C379  1  0.467400  0.497500  0.959300  1.0  -0.062
  C  C380  1  0.587400  0.536700  0.016700  1.0  -0.1034
  C  C381  1  0.966200  0.523500  0.916500  1.0  0.7204
  C  C382  1  0.983200  0.511000  0.959700  1.0  -0.09
  C  C383  1  0.915800  0.535800  0.990300  1.0  -0.0909
  C  C384  1  0.067700  0.474100  0.969400  1.0  -0.1108
  C  C385  1  0.281000  0.617600  0.529000  1.0  0.0142
  C  C386  1  0.249000  0.609900  0.573500  1.0  -0.0946
  C  C387  1  0.412600  0.603500  0.623300  1.0  0.1323
  C  C388  1  0.355300  0.685100  0.618500  1.0  -0.025
  C  C389  1  0.444000  0.689400  0.645700  1.0  -0.1601
  C  C390  1  0.583200  0.617700  0.666900  1.0  0.4588
  C  C391  1  0.638900  0.652900  0.696600  1.0  -0.1895
  C  C392  1  0.737600  0.632500  0.714100  1.0  -0.1216
  C  C393  1  0.770700  0.577500  0.701300  1.0  -0.1578
  C  C394  1  0.701800  0.548100  0.673100  1.0  0.3333
  C  C395  1  0.655600  0.456700  0.636200  1.0  0.139
  C  C396  1  0.825500  0.459400  0.666300  1.0  -0.1029
  C  C397  1  0.810400  0.409500  0.648300  1.0  -0.07
  C  C398  1  0.659100  0.360700  0.596300  1.0  -0.072
  C  C399  1  0.680600  0.370800  0.553100  1.0  0.0865
  C  C400  1  0.781200  0.393800  0.541700  1.0  -0.2203
  C  C401  1  0.201900  0.600700  0.498600  1.0  -0.094
  C  C402  1  0.601900  0.353600  0.524300  1.0  -0.1086
  C  C403  1  0.381800  0.641900  0.518500  1.0  -0.2019
  C  C404  1  0.719000  0.382400  0.471000  1.0  0.0126
  C  C405  1  0.751000  0.390100  0.426500  1.0  -0.0919
  C  C406  1  0.587400  0.396500  0.376700  1.0  0.1341
  C  C407  1  0.644700  0.314900  0.381500  1.0  -0.0231
  C  C408  1  0.556000  0.310600  0.354300  1.0  -0.1637
  C  C409  1  0.416800  0.382300  0.333100  1.0  0.4607
  C  C410  1  0.361100  0.347100  0.303400  1.0  -0.1913
  C  C411  1  0.262400  0.367500  0.285900  1.0  -0.1222
  C  C412  1  0.229300  0.422500  0.298700  1.0  -0.1612
  C  C413  1  0.298200  0.451900  0.326900  1.0  0.332
  C  C414  1  0.344400  0.543300  0.363800  1.0  0.1411
  C  C415  1  0.174500  0.540600  0.333700  1.0  -0.1033
  C  C416  1  0.189600  0.590500  0.351700  1.0  -0.0657
  C  C417  1  0.340900  0.639300  0.403700  1.0  -0.0712
  C  C418  1  0.319400  0.629200  0.446900  1.0  0.0852
  C  C419  1  0.218800  0.606200  0.458300  1.0  -0.2199
  C  C420  1  0.798100  0.399300  0.501400  1.0  -0.096
  C  C421  1  0.398100  0.646400  0.475700  1.0  -0.1074
  C  C422  1  0.618200  0.358100  0.481500  1.0  -0.2023
  C  C423  1  0.148300  0.159500  0.422500  1.0  -0.126
  C  C424  1  0.135100  0.069600  0.372400  1.0  0.1137
  C  C425  1  0.291800  0.118200  0.361900  1.0  -0.0387
  C  C426  1  0.300800  0.073900  0.340000  1.0  0.0028
  C  C427  1  0.177700  0.985100  0.325900  1.0  0.3328
  C  C428  1  0.248200  0.961300  0.294700  1.0  -0.1707
  C  C429  1  0.212900  0.904600  0.277800  1.0  -0.1131
  C  C430  1  0.118000  0.880500  0.293200  1.0  -0.2326
  C  C431  1  0.062600  0.913400  0.326800  1.0  0.2854
  C  C432  1  0.895400  0.919600  0.373100  1.0  0.0734
  C  C433  1  0.930000  0.835300  0.339500  1.0  -0.117
  C  C434  1  0.838000  0.830700  0.363900  1.0  -0.1308
  C  C435  1  0.733300  0.899000  0.419600  1.0  -0.1252
  C  C436  1  0.771900  0.883000  0.460000  1.0  0.232
  C  C437  1  0.698800  0.894100  0.489100  1.0  -0.1395
  C  C438  1  0.723400  0.884000  0.532900  1.0  -0.1991
  C  C439  1  0.174600  0.142200  0.461200  1.0  0.2024
  C  C440  1  0.101800  0.155000  0.493200  1.0  -0.1917
  C  C441  1  0.873000  0.859400  0.469400  1.0  -0.108
  C  C442  1  0.851700  0.840500  0.577500  1.0  -0.13
  C  C443  1  0.864900  0.930400  0.627600  1.0  0.1145
  C  C444  1  0.708200  0.881800  0.638100  1.0  -0.0384
  C  C445  1  0.699200  0.926100  0.660000  1.0  1e-04
  C  C446  1  0.822300  0.014900  0.674100  1.0  0.3304
  C  C447  1  0.751800  0.038700  0.705300  1.0  -0.1718
  C  C448  1  0.787100  0.095400  0.722200  1.0  -0.1156
  C  C449  1  0.882000  0.119500  0.706800  1.0  -0.231
  C  C450  1  0.937400  0.086600  0.673200  1.0  0.2821
  C  C451  1  0.104600  0.080400  0.626900  1.0  0.0731
  C  C452  1  0.070000  0.164700  0.660500  1.0  -0.1189
  C  C453  1  0.162000  0.169300  0.636100  1.0  -0.1279
  C  C454  1  0.266700  0.101000  0.580400  1.0  -0.1254
  C  C455  1  0.228100  0.117000  0.540000  1.0  0.2348
  C  C456  1  0.301200  0.105900  0.510900  1.0  -0.1492
  C  C457  1  0.276600  0.116000  0.467100  1.0  -0.197
  C  C458  1  0.825400  0.857800  0.538800  1.0  0.2032
  C  C459  1  0.898200  0.845000  0.506800  1.0  -0.1918
  C  C460  1  0.127000  0.140600  0.530600  1.0  -0.1074
  C  C461  1  0.781000  0.882400  0.971000  1.0  0.0131
  C  C462  1  0.749000  0.890100  0.926500  1.0  -0.0925
  C  C463  1  0.912600  0.896500  0.876700  1.0  0.1337
  C  C464  1  0.855300  0.814900  0.881500  1.0  -0.0243
  C  C465  1  0.944000  0.810600  0.854300  1.0  -0.1626
  C  C466  1  0.083200  0.882300  0.833100  1.0  0.4599
  C  C467  1  0.138900  0.847100  0.803400  1.0  -0.1921
  C  C468  1  0.237600  0.867500  0.785900  1.0  -0.1213
  C  C469  1  0.270700  0.922500  0.798700  1.0  -0.1586
  C  C470  1  0.201800  0.951900  0.826900  1.0  0.3338
  C  C471  1  0.155600  0.043300  0.863800  1.0  0.1385
  C  C472  1  0.325500  0.040600  0.833700  1.0  -0.1028
  C  C473  1  0.310400  0.090500  0.851700  1.0  -0.0678
  C  C474  1  0.159100  0.139300  0.903700  1.0  -0.071
  C  C475  1  0.180600  0.129200  0.946900  1.0  0.0851
  C  C476  1  0.281200  0.106200  0.958300  1.0  -0.2207
  C  C477  1  0.701900  0.899300  0.001400  1.0  -0.0933
  C  C478  1  0.101900  0.146400  0.975700  1.0  -0.1097
  C  C479  1  0.881800  0.858100  0.981500  1.0  -0.202
  C  C480  1  0.219000  0.117600  0.029000  1.0  0.0138
  C  C481  1  0.251000  0.109900  0.073500  1.0  -0.093
  C  C482  1  0.087400  0.103500  0.123300  1.0  0.1327
  C  C483  1  0.144700  0.185100  0.118500  1.0  -0.0224
  C  C484  1  0.056000  0.189400  0.145700  1.0  -0.1627
  C  C485  1  0.916800  0.117700  0.166900  1.0  0.4592
  C  C486  1  0.861100  0.152900  0.196600  1.0  -0.1882
  C  C487  1  0.762400  0.132500  0.214100  1.0  -0.1229
  C  C488  1  0.729300  0.077500  0.201300  1.0  -0.1607
  C  C489  1  0.798200  0.048100  0.173100  1.0  0.3321
  C  C490  1  0.844400  0.956700  0.136200  1.0  0.1419
  C  C491  1  0.674500  0.959400  0.166300  1.0  -0.1045
  C  C492  1  0.689600  0.909500  0.148300  1.0  -0.0697
  C  C493  1  0.840900  0.860700  0.096300  1.0  -0.0729
  C  C494  1  0.819400  0.870800  0.053100  1.0  0.0866
  C  C495  1  0.718800  0.893800  0.041700  1.0  -0.2192
  C  C496  1  0.298100  0.100700  0.998600  1.0  -0.0967
  C  C497  1  0.898100  0.853600  0.024300  1.0  -0.1064
  C  C498  1  0.118200  0.141900  0.018500  1.0  -0.2019
  C  C499  1  0.648300  0.340500  0.077500  1.0  -0.1268
  C  C500  1  0.635100  0.430400  0.127600  1.0  0.1141
  C  C501  1  0.791800  0.381800  0.138100  1.0  -0.0395
  C  C502  1  0.800800  0.426100  0.160000  1.0  0.0058
  C  C503  1  0.677700  0.514900  0.174100  1.0  0.3313
  C  C504  1  0.748200  0.538700  0.205300  1.0  -0.1705
  C  C505  1  0.712900  0.595400  0.222200  1.0  -0.1137
  C  C506  1  0.618000  0.619500  0.206800  1.0  -0.2314
  C  C507  1  0.562600  0.586600  0.173200  1.0  0.282
  C  C508  1  0.395400  0.580400  0.126900  1.0  0.0727
  C  C509  1  0.430000  0.664700  0.160500  1.0  -0.1169
  C  C510  1  0.338000  0.669300  0.136100  1.0  -0.1297
  C  C511  1  0.233300  0.601000  0.080400  1.0  -0.1259
  C  C512  1  0.271900  0.617000  0.040000  1.0  0.2342
  C  C513  1  0.198800  0.605900  0.010900  1.0  -0.1417
  C  C514  1  0.223400  0.616000  0.967100  1.0  -0.1995
  C  C515  1  0.674600  0.357800  0.038800  1.0  0.2031
  C  C516  1  0.601800  0.345000  0.006800  1.0  -0.1913
  C  C517  1  0.373000  0.640600  0.030600  1.0  -0.1078
  C  C518  1  0.351700  0.659500  0.922500  1.0  -0.1289
  C  C519  1  0.364900  0.569600  0.872400  1.0  0.1139
  C  C520  1  0.208200  0.618200  0.861900  1.0  -0.037
  C  C521  1  0.199200  0.573900  0.840000  1.0  1e-04
  C  C522  1  0.322300  0.485100  0.825900  1.0  0.3311
  C  C523  1  0.251800  0.461300  0.794700  1.0  -0.1727
  C  C524  1  0.287100  0.404600  0.777800  1.0  -0.1146
  C  C525  1  0.382000  0.380500  0.793200  1.0  -0.2324
  C  C526  1  0.437400  0.413400  0.826800  1.0  0.2856
  C  C527  1  0.604600  0.419600  0.873100  1.0  0.0732
  C  C528  1  0.570000  0.335300  0.839500  1.0  -0.1171
  C  C529  1  0.662000  0.330700  0.863900  1.0  -0.1307
  C  C530  1  0.766700  0.399000  0.919600  1.0  -0.1241
  C  C531  1  0.728100  0.383000  0.960000  1.0  0.2323
  C  C532  1  0.801200  0.394100  0.989100  1.0  -0.148
  C  C533  1  0.776600  0.384000  0.032900  1.0  -0.1966
  C  C534  1  0.325400  0.642200  0.961200  1.0  0.2025
  C  C535  1  0.398200  0.655000  0.993200  1.0  -0.1925
  C  C536  1  0.627000  0.359400  0.969400  1.0  -0.1084
  N  N537  1  0.334600  0.632500  0.603200  1.0  0.0341
  N  N538  1  0.481100  0.635000  0.646300  1.0  0.0751
  N  N539  1  0.610800  0.566900  0.655700  1.0  -0.3637
  N  N540  1  0.727000  0.489000  0.658200  1.0  0.0831
  N  N541  1  0.703700  0.407200  0.627700  1.0  0.0145
  N  N542  1  0.665400  0.367500  0.396800  1.0  0.0357
  N  N543  1  0.518900  0.365000  0.353700  1.0  0.0728
  N  N544  1  0.389200  0.433100  0.344300  1.0  -0.3625
  N  N545  1  0.273000  0.511000  0.341800  1.0  0.0827
  N  N546  1  0.296300  0.592800  0.372300  1.0  0.0131
  N  N547  1  0.185500  0.117000  0.384700  1.0  -0.0625
  N  N548  1  0.204000  0.039900  0.344900  1.0  0.0567
  N  N549  1  0.086500  0.963600  0.342800  1.0  -0.4907
  N  N550  1  0.962200  0.888700  0.344500  1.0  0.0653
  N  N551  1  0.819000  0.883400  0.385500  1.0  0.0478
  N  N552  1  0.814500  0.883000  0.615300  1.0  -0.0612
  N  N553  1  0.796000  0.960100  0.655100  1.0  0.0565
  N  N554  1  0.913500  0.036400  0.657200  1.0  -0.4884
  N  N555  1  0.037800  0.111300  0.655500  1.0  0.0667
  N  N556  1  0.181000  0.116600  0.614500  1.0  0.0485
  N  N557  1  0.834600  0.867500  0.896800  1.0  0.0354
  N  N558  1  0.981100  0.865000  0.853700  1.0  0.0741
  N  N559  1  0.110800  0.933100  0.844300  1.0  -0.3639
  N  N560  1  0.227000  0.011000  0.841800  1.0  0.0836
  N  N561  1  0.203700  0.092800  0.872300  1.0  0.0135
  N  N562  1  0.165400  0.132500  0.103200  1.0  0.0331
  N  N563  1  0.018900  0.135000  0.146300  1.0  0.0737
  N  N564  1  0.889200  0.066900  0.155700  1.0  -0.3634
  N  N565  1  0.773000  0.989000  0.158200  1.0  0.0831
  N  N566  1  0.796300  0.907200  0.127700  1.0  0.0143
  N  N567  1  0.685500  0.383000  0.115300  1.0  -0.0605
  N  N568  1  0.704000  0.460100  0.155100  1.0  0.0556
  N  N569  1  0.586500  0.536400  0.157200  1.0  -0.4905
  N  N570  1  0.462200  0.611300  0.155500  1.0  0.0667
  N  N571  1  0.319000  0.616600  0.114500  1.0  0.0474
  N  N572  1  0.314500  0.617000  0.884700  1.0  -0.0629
  N  N573  1  0.296000  0.539900  0.844900  1.0  0.0563
  N  N574  1  0.413500  0.463600  0.842800  1.0  -0.488
  N  N575  1  0.537800  0.388700  0.844500  1.0  0.0641
  N  N576  1  0.681000  0.383400  0.885500  1.0  0.0494
  O  O577  1  0.119000  0.413000  0.684100  1.0  -0.288
  O  O578  1  0.286200  0.498600  0.677000  1.0  -0.6109
  O  O579  1  0.389800  0.424100  0.678500  1.0  -0.5976
  O  O580  1  0.595100  0.167300  0.359200  1.0  -0.2753
  O  O581  1  0.402000  0.467900  0.601100  1.0  -0.6371
  O  O582  1  0.311000  0.408800  0.553800  1.0  -0.6059
  O  O583  1  0.120900  0.478700  0.601100  1.0  -0.6669
  O  O584  1  0.979200  0.537800  0.611600  1.0  -0.4831
  O  O585  1  0.100700  0.355800  0.597900  1.0  -0.721
  O  O586  1  0.975300  0.295000  0.619700  1.0  -0.5874
  O  O587  1  0.822100  0.210500  0.413200  1.0  -0.6737
  O  O588  1  0.929900  0.278400  0.395800  1.0  -0.5945
  O  O589  1  0.331100  0.331400  0.622500  1.0  -0.7026
  O  O590  1  0.390700  0.254300  0.644900  1.0  -0.5158
  O  O591  1  0.604700  0.171000  0.445700  1.0  -0.6072
  O  O592  1  0.457800  0.215500  0.420300  1.0  -0.5635
  O  O593  1  0.747500  0.564100  0.834400  1.0  -0.6821
  O  O594  1  0.620500  0.630500  0.843200  1.0  -0.5924
  O  O595  1  0.891400  0.057900  0.408900  1.0  -0.5822
  O  O596  1  0.818300  0.108400  0.463000  1.0  -0.6393
  O  O597  1  0.614500  0.055400  0.409200  1.0  -0.6949
  O  O598  1  0.470300  0.997600  0.386800  1.0  -0.5443
  O  O599  1  0.619000  0.087000  0.815900  1.0  -0.2865
  O  O600  1  0.786200  0.001400  0.823000  1.0  -0.6111
  O  O601  1  0.889800  0.075900  0.821500  1.0  -0.5971
  O  O602  1  0.095100  0.332700  0.140800  1.0  -0.2733
  O  O603  1  0.902000  0.032100  0.898900  1.0  -0.637
  O  O604  1  0.811000  0.091200  0.946200  1.0  -0.6066
  O  O605  1  0.620900  0.021300  0.898900  1.0  -0.6666
  O  O606  1  0.479200  0.962200  0.888400  1.0  -0.4841
  O  O607  1  0.600700  0.144200  0.902100  1.0  -0.7215
  O  O608  1  0.475300  0.205000  0.880300  1.0  -0.5876
  O  O609  1  0.322100  0.289500  0.086800  1.0  -0.6726
  O  O610  1  0.429900  0.221600  0.104200  1.0  -0.598
  O  O611  1  0.831100  0.168600  0.877500  1.0  -0.7001
  O  O612  1  0.890700  0.245700  0.855100  1.0  -0.5153
  O  O613  1  0.104700  0.329000  0.054300  1.0  -0.608
  O  O614  1  0.957800  0.284500  0.079700  1.0  -0.5608
  O  O615  1  0.247500  0.935900  0.665600  1.0  -0.6824
  O  O616  1  0.120500  0.869500  0.656800  1.0  -0.594
  O  O617  1  0.391400  0.442100  0.091100  1.0  -0.5819
  O  O618  1  0.318300  0.391600  0.037000  1.0  -0.6395
  O  O619  1  0.114500  0.444600  0.090800  1.0  -0.6936
  O  O620  1  0.970300  0.502400  0.113200  1.0  -0.541
  O  O621  1  0.881000  0.587000  0.315900  1.0  -0.2846
  O  O622  1  0.713800  0.501400  0.323000  1.0  -0.6107
  O  O623  1  0.610200  0.575900  0.321500  1.0  -0.5964
  O  O624  1  0.404900  0.832700  0.640800  1.0  -0.2732
  O  O625  1  0.598000  0.532100  0.398900  1.0  -0.6363
  O  O626  1  0.689000  0.591200  0.446200  1.0  -0.6061
  O  O627  1  0.879100  0.521300  0.398900  1.0  -0.667
  O  O628  1  0.020800  0.462200  0.388400  1.0  -0.4846
  O  O629  1  0.899300  0.644200  0.402100  1.0  -0.7209
  O  O630  1  0.024700  0.705000  0.380300  1.0  -0.5874
  O  O631  1  0.177900  0.789500  0.586800  1.0  -0.6724
  O  O632  1  0.070100  0.721600  0.604200  1.0  -0.5968
  O  O633  1  0.668900  0.668600  0.377500  1.0  -0.7008
  O  O634  1  0.609300  0.745700  0.355100  1.0  -0.5142
  O  O635  1  0.395300  0.829000  0.554300  1.0  -0.6071
  O  O636  1  0.542200  0.784500  0.579700  1.0  -0.5607
  O  O637  1  0.252500  0.435900  0.165600  1.0  -0.6838
  O  O638  1  0.379500  0.369500  0.156800  1.0  -0.5928
  O  O639  1  0.108600  0.942100  0.591100  1.0  -0.5804
  O  O640  1  0.181700  0.891600  0.537000  1.0  -0.6387
  O  O641  1  0.385500  0.944600  0.590800  1.0  -0.6936
  O  O642  1  0.529700  0.002400  0.613200  1.0  -0.5421
  O  O643  1  0.381000  0.913000  0.184100  1.0  -0.2856
  O  O644  1  0.213800  0.998600  0.177000  1.0  -0.61
  O  O645  1  0.110200  0.924100  0.178500  1.0  -0.597
  O  O646  1  0.904900  0.667300  0.859200  1.0  -0.2759
  O  O647  1  0.098000  0.967900  0.101100  1.0  -0.6361
  O  O648  1  0.189000  0.908800  0.053800  1.0  -0.6054
  O  O649  1  0.379100  0.978700  0.101100  1.0  -0.6674
  O  O650  1  0.520800  0.037800  0.111600  1.0  -0.4841
  O  O651  1  0.399300  0.855800  0.097900  1.0  -0.7207
  O  O652  1  0.524700  0.795000  0.119700  1.0  -0.5862
  O  O653  1  0.677900  0.710500  0.913200  1.0  -0.6733
  O  O654  1  0.570100  0.778400  0.895800  1.0  -0.5953
  O  O655  1  0.168900  0.831400  0.122500  1.0  -0.7018
  O  O656  1  0.109300  0.754300  0.144900  1.0  -0.516
  O  O657  1  0.895300  0.671000  0.945700  1.0  -0.6066
  O  O658  1  0.042200  0.715500  0.920300  1.0  -0.5646
  O  O659  1  0.752500  0.064100  0.334400  1.0  -0.6838
  O  O660  1  0.879500  0.130500  0.343200  1.0  -0.5918
  O  O661  1  0.608600  0.557900  0.908900  1.0  -0.5816
  O  O662  1  0.681700  0.608400  0.963000  1.0  -0.6387
  O  O663  1  0.885500  0.555400  0.909200  1.0  -0.6946
  O  O664  1  0.029700  0.497600  0.886800  1.0  -0.5436
