# generated using pymatgen
data_PrH15(C9O2)3
_symmetry_space_group_name_H-M   'P 1'
_cell_length_a   16.43930000
_cell_length_b   16.43930000
_cell_length_c   23.77700000
_cell_angle_alpha   90.00000000
_cell_angle_beta   90.00000000
_cell_angle_gamma   120.00000000
_symmetry_Int_Tables_number   1
_chemical_formula_structural   PrH15(C9O2)3
_chemical_formula_sum   'Pr6 H90 C162 O36'
_cell_volume   5564.86113399
_cell_formula_units_Z   6
loop_
 _symmetry_equiv_pos_site_id
 _symmetry_equiv_pos_as_xyz
  1  'x, y, z'
loop_
 _atom_site_type_symbol
 _atom_site_label
 _atom_site_symmetry_multiplicity
 _atom_site_fract_x
 _atom_site_fract_y
 _atom_site_fract_z
 _atom_site_occupancy
 _atom_site_charge
  Pr  Pr1  1  0.084330  0.084330  0.000000  1.0  2.0662
  Pr  Pr2  1  0.000000  0.915670  0.666667  1.0  2.0663
  Pr  Pr3  1  0.915670  0.000000  0.333333  1.0  2.0669
  Pr  Pr4  1  0.915670  0.915670  0.500000  1.0  2.0666
  Pr  Pr5  1  0.000000  0.084330  0.166670  1.0  2.0671
  Pr  Pr6  1  0.084330  0.000000  0.833330  1.0  2.0658
  H  H7  1  0.110900  0.812100  0.909000  1.0  0.1041
  H  H8  1  0.177700  0.722200  0.893500  1.0  0.1174
  H  H9  1  0.386900  0.884600  0.999200  1.0  0.1136
  H  H10  1  0.325100  0.982700  0.009000  1.0  0.1047
  H  H11  1  0.471600  0.851000  0.942300  1.0  0.1032
  H  H12  1  0.610900  0.879900  0.984700  1.0  0.1362
  H  H13  1  0.773300  0.960800  0.983300  1.0  0.102
  H  H14  1  0.701200  0.889100  0.575670  1.0  0.1049
  H  H15  1  0.544500  0.822300  0.560170  1.0  0.1182
  H  H16  1  0.497700  0.613100  0.665870  1.0  0.1144
  H  H17  1  0.657600  0.674900  0.675670  1.0  0.1055
  H  H18  1  0.379400  0.528400  0.608970  1.0  0.1035
  H  H19  1  0.269000  0.389100  0.651370  1.0  0.1362
  H  H20  1  0.187500  0.226700  0.649970  1.0  0.1027
  H  H21  1  0.187900  0.298800  0.242330  1.0  0.105
  H  H22  1  0.277800  0.455500  0.226830  1.0  0.1178
  H  H23  1  0.115400  0.502300  0.332530  1.0  0.1141
  H  H24  1  0.017300  0.342400  0.342330  1.0  0.1047
  H  H25  1  0.149000  0.620600  0.275630  1.0  0.1038
  H  H26  1  0.120100  0.731000  0.318030  1.0  0.1358
  H  H27  1  0.039200  0.812500  0.316630  1.0  0.1025
  H  H28  1  0.889100  0.187900  0.409000  1.0  0.1043
  H  H29  1  0.822300  0.277800  0.393500  1.0  0.1177
  H  H30  1  0.613100  0.115400  0.499200  1.0  0.114
  H  H31  1  0.674900  0.017300  0.509000  1.0  0.1047
  H  H32  1  0.528400  0.149000  0.442300  1.0  0.1036
  H  H33  1  0.389100  0.120100  0.484700  1.0  0.1365
  H  H34  1  0.226700  0.039200  0.483300  1.0  0.102
  H  H35  1  0.298800  0.110900  0.075670  1.0  0.1053
  H  H36  1  0.455500  0.177700  0.060170  1.0  0.1181
  H  H37  1  0.502300  0.386900  0.165870  1.0  0.1145
  H  H38  1  0.342400  0.325100  0.175670  1.0  0.1057
  H  H39  1  0.620600  0.471600  0.108970  1.0  0.1034
  H  H40  1  0.731000  0.610900  0.151370  1.0  0.1363
  H  H41  1  0.812500  0.773300  0.149970  1.0  0.1027
  H  H42  1  0.812100  0.701200  0.742330  1.0  0.1043
  H  H43  1  0.722200  0.544500  0.726830  1.0  0.1175
  H  H44  1  0.884600  0.497700  0.832530  1.0  0.1137
  H  H45  1  0.982700  0.657600  0.842330  1.0  0.105
  H  H46  1  0.851000  0.379400  0.775630  1.0  0.1037
  H  H47  1  0.879900  0.269000  0.818030  1.0  0.1354
  H  H48  1  0.960800  0.187500  0.816630  1.0  0.1028
  H  H49  1  0.298800  0.187900  0.757670  1.0  0.1039
  H  H50  1  0.455500  0.277800  0.773170  1.0  0.1174
  H  H51  1  0.502300  0.115400  0.667470  1.0  0.1129
  H  H52  1  0.342400  0.017300  0.657670  1.0  0.1045
  H  H53  1  0.620600  0.149000  0.724370  1.0  0.1038
  H  H54  1  0.731000  0.120100  0.681970  1.0  0.1357
  H  H55  1  0.812500  0.039200  0.683370  1.0  0.1015
  H  H56  1  0.812100  0.110900  0.091000  1.0  0.105
  H  H57  1  0.722200  0.177700  0.106500  1.0  0.118
  H  H58  1  0.884600  0.386900  0.000800  1.0  0.1141
  H  H59  1  0.982700  0.325100  0.991000  1.0  0.1059
  H  H60  1  0.851000  0.471600  0.057700  1.0  0.1036
  H  H61  1  0.879900  0.610900  0.015300  1.0  0.1359
  H  H62  1  0.960800  0.773300  0.016700  1.0  0.1024
  H  H63  1  0.889100  0.701200  0.424330  1.0  0.1046
  H  H64  1  0.822300  0.544500  0.439830  1.0  0.1172
  H  H65  1  0.613100  0.497700  0.334130  1.0  0.1131
  H  H66  1  0.674900  0.657600  0.324330  1.0  0.1048
  H  H67  1  0.528400  0.379400  0.391030  1.0  0.1035
  H  H68  1  0.389100  0.269000  0.348630  1.0  0.1351
  H  H69  1  0.226700  0.187500  0.350030  1.0  0.1027
  H  H70  1  0.701200  0.812100  0.257670  1.0  0.1044
  H  H71  1  0.544500  0.722200  0.273170  1.0  0.117
  H  H72  1  0.497700  0.884600  0.167470  1.0  0.1135
  H  H73  1  0.657600  0.982700  0.157670  1.0  0.1049
  H  H74  1  0.379400  0.851000  0.224370  1.0  0.1033
  H  H75  1  0.269000  0.879900  0.181970  1.0  0.136
  H  H76  1  0.187500  0.960800  0.183370  1.0  0.1021
  H  H77  1  0.187900  0.889100  0.591000  1.0  0.1048
  H  H78  1  0.277800  0.822300  0.606500  1.0  0.1176
  H  H79  1  0.115400  0.613100  0.500800  1.0  0.1141
  H  H80  1  0.017300  0.674900  0.491000  1.0  0.1054
  H  H81  1  0.149000  0.528400  0.557700  1.0  0.1036
  H  H82  1  0.120100  0.389100  0.515300  1.0  0.1358
  H  H83  1  0.039200  0.226700  0.516700  1.0  0.1026
  H  H84  1  0.110900  0.298800  0.924330  1.0  0.1046
  H  H85  1  0.177700  0.455500  0.939830  1.0  0.1175
  H  H86  1  0.386900  0.502300  0.834130  1.0  0.1134
  H  H87  1  0.325100  0.342400  0.824330  1.0  0.1052
  H  H88  1  0.471600  0.620600  0.891030  1.0  0.1042
  H  H89  1  0.610900  0.731000  0.848630  1.0  0.1354
  H  H90  1  0.773300  0.812500  0.850030  1.0  0.1026
  H  H91  1  0.227700  0.613850  0.916670  1.0  0.1211
  H  H92  1  0.386150  0.772300  0.583330  1.0  0.1192
  H  H93  1  0.386150  0.613850  0.250000  1.0  0.1211
  H  H94  1  0.772300  0.386150  0.416670  1.0  0.1209
  H  H95  1  0.613850  0.227700  0.083330  1.0  0.12
  H  H96  1  0.613850  0.386150  0.750000  1.0  0.1206
  C  C97  1  0.175700  0.976100  0.963700  1.0  0.7151
  C  C98  1  0.213700  0.910700  0.958500  1.0  -0.1043
  C  C99  1  0.168500  0.828900  0.925400  1.0  -0.0791
  C  C100  1  0.207200  0.774100  0.917100  1.0  -0.1328
  C  C101  1  0.293100  0.795500  0.944100  1.0  0.0415
  C  C102  1  0.333100  0.871700  0.979300  1.0  -0.1399
  C  C103  1  0.295200  0.930200  0.985900  1.0  -0.0402
  C  C104  1  0.342100  0.743500  0.930300  1.0  0.0135
  C  C105  1  0.438500  0.788300  0.931300  1.0  -0.0845
  C  C106  1  0.643300  0.866600  0.957600  1.0  -0.1421
  C  C107  1  0.740300  0.914400  0.956600  1.0  -0.0418
  C  C108  1  0.800400  0.824300  0.630370  1.0  0.715
  C  C109  1  0.697000  0.786300  0.625170  1.0  -0.1026
  C  C110  1  0.660400  0.831500  0.592070  1.0  -0.0796
  C  C111  1  0.566900  0.792800  0.583770  1.0  -0.1353
  C  C112  1  0.502400  0.706900  0.610770  1.0  0.0415
  C  C113  1  0.538600  0.666900  0.645970  1.0  -0.142
  C  C114  1  0.635000  0.704800  0.652570  1.0  -0.0418
  C  C115  1  0.401400  0.657900  0.596970  1.0  0.0151
  C  C116  1  0.349800  0.561500  0.597970  1.0  -0.0881
  C  C117  1  0.223300  0.356700  0.624270  1.0  -0.142
  C  C118  1  0.174100  0.259700  0.623270  1.0  -0.0408
  C  C119  1  0.023900  0.199600  0.297030  1.0  0.7153
  C  C120  1  0.089300  0.303000  0.291830  1.0  -0.1031
  C  C121  1  0.171100  0.339600  0.258730  1.0  -0.0783
  C  C122  1  0.225900  0.433100  0.250430  1.0  -0.1356
  C  C123  1  0.204500  0.497600  0.277430  1.0  0.0412
  C  C124  1  0.128300  0.461400  0.312630  1.0  -0.1417
  C  C125  1  0.069800  0.365000  0.319230  1.0  -0.0424
  C  C126  1  0.256500  0.598600  0.263630  1.0  0.0155
  C  C127  1  0.211700  0.650200  0.264630  1.0  -0.088
  C  C128  1  0.133400  0.776700  0.290930  1.0  -0.1396
  C  C129  1  0.085600  0.825900  0.289930  1.0  -0.0384
  C  C130  1  0.824300  0.023900  0.463700  1.0  0.7149
  C  C131  1  0.786300  0.089300  0.458500  1.0  -0.1047
  C  C132  1  0.831500  0.171100  0.425400  1.0  -0.0786
  C  C133  1  0.792800  0.225900  0.417100  1.0  -0.1342
  C  C134  1  0.706900  0.204500  0.444100  1.0  0.0417
  C  C135  1  0.666900  0.128300  0.479300  1.0  -0.1409
  C  C136  1  0.704800  0.069800  0.485900  1.0  -0.0398
  C  C137  1  0.657900  0.256500  0.430300  1.0  0.0146
  C  C138  1  0.561500  0.211700  0.431300  1.0  -0.086
  C  C139  1  0.356700  0.133400  0.457600  1.0  -0.1418
  C  C140  1  0.259700  0.085600  0.456600  1.0  -0.0419
  C  C141  1  0.199600  0.175700  0.130370  1.0  0.7151
  C  C142  1  0.303000  0.213700  0.125170  1.0  -0.1021
  C  C143  1  0.339600  0.168500  0.092070  1.0  -0.079
  C  C144  1  0.433100  0.207200  0.083770  1.0  -0.1351
  C  C145  1  0.497600  0.293100  0.110770  1.0  0.0411
  C  C146  1  0.461400  0.333100  0.145970  1.0  -0.1402
  C  C147  1  0.365000  0.295200  0.152570  1.0  -0.041
  C  C148  1  0.598600  0.342100  0.096970  1.0  0.0155
  C  C149  1  0.650200  0.438500  0.097970  1.0  -0.0884
  C  C150  1  0.776700  0.643300  0.124270  1.0  -0.1422
  C  C151  1  0.825900  0.740300  0.123270  1.0  -0.0397
  C  C152  1  0.976100  0.800400  0.797030  1.0  0.7166
  C  C153  1  0.910700  0.697000  0.791830  1.0  -0.1039
  C  C154  1  0.828900  0.660400  0.758730  1.0  -0.0785
  C  C155  1  0.774100  0.566900  0.750430  1.0  -0.1349
  C  C156  1  0.795500  0.502400  0.777430  1.0  0.0415
  C  C157  1  0.871700  0.538600  0.812630  1.0  -0.1407
  C  C158  1  0.930200  0.635000  0.819230  1.0  -0.0418
  C  C159  1  0.743500  0.401400  0.763630  1.0  0.0159
  C  C160  1  0.788300  0.349800  0.764630  1.0  -0.0879
  C  C161  1  0.866600  0.223300  0.790930  1.0  -0.1408
  C  C162  1  0.914400  0.174100  0.789930  1.0  -0.0398
  C  C163  1  0.199600  0.023900  0.702970  1.0  0.715
  C  C164  1  0.303000  0.089300  0.708170  1.0  -0.1053
  C  C165  1  0.339600  0.171100  0.741270  1.0  -0.0788
  C  C166  1  0.433100  0.225900  0.749570  1.0  -0.1332
  C  C167  1  0.497600  0.204500  0.722570  1.0  0.0418
  C  C168  1  0.461400  0.128300  0.687370  1.0  -0.1393
  C  C169  1  0.365000  0.069800  0.680770  1.0  -0.0398
  C  C170  1  0.598600  0.256500  0.736370  1.0  0.0135
  C  C171  1  0.650200  0.211700  0.735370  1.0  -0.0857
  C  C172  1  0.776700  0.133400  0.709070  1.0  -0.1397
  C  C173  1  0.825900  0.085600  0.710070  1.0  -0.0412
  C  C174  1  0.976100  0.175700  0.036300  1.0  0.7142
  C  C175  1  0.910700  0.213700  0.041500  1.0  -0.1026
  C  C176  1  0.828900  0.168500  0.074600  1.0  -0.0787
  C  C177  1  0.774100  0.207200  0.082900  1.0  -0.1345
  C  C178  1  0.795500  0.293100  0.055900  1.0  0.0416
  C  C179  1  0.871700  0.333100  0.020700  1.0  -0.1403
  C  C180  1  0.930200  0.295200  0.014100  1.0  -0.0412
  C  C181  1  0.743500  0.342100  0.069700  1.0  0.0152
  C  C182  1  0.788300  0.438500  0.068700  1.0  -0.0877
  C  C183  1  0.866600  0.643300  0.042400  1.0  -0.1408
  C  C184  1  0.914400  0.740300  0.043400  1.0  -0.0404
  C  C185  1  0.824300  0.800400  0.369630  1.0  0.7148
  C  C186  1  0.786300  0.697000  0.374830  1.0  -0.1032
  C  C187  1  0.831500  0.660400  0.407930  1.0  -0.0782
  C  C188  1  0.792800  0.566900  0.416230  1.0  -0.135
  C  C189  1  0.706900  0.502400  0.389230  1.0  0.0415
  C  C190  1  0.666900  0.538600  0.354030  1.0  -0.141
  C  C191  1  0.704800  0.635000  0.347430  1.0  -0.0425
  C  C192  1  0.657900  0.401400  0.403030  1.0  0.016
  C  C193  1  0.561500  0.349800  0.402030  1.0  -0.0883
  C  C194  1  0.356700  0.223300  0.375730  1.0  -0.1394
  C  C195  1  0.259700  0.174100  0.376730  1.0  -0.0383
  C  C196  1  0.800400  0.976100  0.202970  1.0  0.7139
  C  C197  1  0.697000  0.910700  0.208170  1.0  -0.1045
  C  C198  1  0.660400  0.828900  0.241270  1.0  -0.078
  C  C199  1  0.566900  0.774100  0.249570  1.0  -0.1322
  C  C200  1  0.502400  0.795500  0.222570  1.0  0.0417
  C  C201  1  0.538600  0.871700  0.187370  1.0  -0.1401
  C  C202  1  0.635000  0.930200  0.180770  1.0  -0.0397
  C  C203  1  0.401400  0.743500  0.236370  1.0  0.0146
  C  C204  1  0.349800  0.788300  0.235370  1.0  -0.0843
  C  C205  1  0.223300  0.866600  0.209070  1.0  -0.1404
  C  C206  1  0.174100  0.914400  0.210070  1.0  -0.0416
  C  C207  1  0.023900  0.824300  0.536300  1.0  0.7148
  C  C208  1  0.089300  0.786300  0.541500  1.0  -0.1026
  C  C209  1  0.171100  0.831500  0.574600  1.0  -0.079
  C  C210  1  0.225900  0.792800  0.582900  1.0  -0.1349
  C  C211  1  0.204500  0.706900  0.555900  1.0  0.0413
  C  C212  1  0.128300  0.666900  0.520700  1.0  -0.1398
  C  C213  1  0.069800  0.704800  0.514100  1.0  -0.0406
  C  C214  1  0.256500  0.657900  0.569700  1.0  0.0155
  C  C215  1  0.211700  0.561500  0.568700  1.0  -0.0883
  C  C216  1  0.133400  0.356700  0.542400  1.0  -0.1407
  C  C217  1  0.085600  0.259700  0.543400  1.0  -0.0397
  C  C218  1  0.175700  0.199600  0.869630  1.0  0.716
  C  C219  1  0.213700  0.303000  0.874830  1.0  -0.1031
  C  C220  1  0.168500  0.339600  0.907930  1.0  -0.0783
  C  C221  1  0.207200  0.433100  0.916230  1.0  -0.1346
  C  C222  1  0.293100  0.497600  0.889230  1.0  0.0416
  C  C223  1  0.333100  0.461400  0.854030  1.0  -0.1397
  C  C224  1  0.295200  0.365000  0.847430  1.0  -0.0422
  C  C225  1  0.342100  0.598600  0.903030  1.0  0.0156
  C  C226  1  0.438500  0.650200  0.902030  1.0  -0.0882
  C  C227  1  0.643300  0.776700  0.875730  1.0  -0.1381
  C  C228  1  0.740300  0.825900  0.876730  1.0  -0.0391
  C  C229  1  0.293100  0.646550  0.916670  1.0  -0.0508
  C  C230  1  0.488500  0.744250  0.916670  1.0  0.0411
  C  C231  1  0.594700  0.797350  0.916670  1.0  0.0489
  C  C232  1  0.789700  0.894850  0.916670  1.0  -0.1257
  C  C233  1  0.894700  0.947350  0.916670  1.0  0.6888
  C  C234  1  0.353450  0.706900  0.583330  1.0  -0.0458
  C  C235  1  0.255750  0.511500  0.583330  1.0  0.0433
  C  C236  1  0.202650  0.405300  0.583330  1.0  0.0497
  C  C237  1  0.105150  0.210300  0.583330  1.0  -0.121
  C  C238  1  0.052650  0.105300  0.583330  1.0  0.6907
  C  C239  1  0.353450  0.646550  0.250000  1.0  -0.0488
  C  C240  1  0.255750  0.744250  0.250000  1.0  0.0398
  C  C241  1  0.202650  0.797350  0.250000  1.0  0.0496
  C  C242  1  0.105150  0.894850  0.250000  1.0  -0.1264
  C  C243  1  0.052650  0.947350  0.250000  1.0  0.6904
  C  C244  1  0.706900  0.353450  0.416670  1.0  -0.048
  C  C245  1  0.511500  0.255750  0.416670  1.0  0.0401
  C  C246  1  0.405300  0.202650  0.416670  1.0  0.0492
  C  C247  1  0.210300  0.105150  0.416670  1.0  -0.1264
  C  C248  1  0.105300  0.052650  0.416670  1.0  0.69
  C  C249  1  0.646550  0.293100  0.083330  1.0  -0.0449
  C  C250  1  0.744250  0.488500  0.083330  1.0  0.0441
  C  C251  1  0.797350  0.594700  0.083330  1.0  0.0494
  C  C252  1  0.894850  0.789700  0.083330  1.0  -0.1222
  C  C253  1  0.947350  0.894700  0.083330  1.0  0.6922
  C  C254  1  0.646550  0.353450  0.750000  1.0  -0.0513
  C  C255  1  0.744250  0.255750  0.750000  1.0  0.0411
  C  C256  1  0.797350  0.202650  0.750000  1.0  0.0493
  C  C257  1  0.894850  0.105150  0.750000  1.0  -0.126
  C  C258  1  0.947350  0.052650  0.750000  1.0  0.6885
  O  O259  1  0.108900  0.966900  0.931640  1.0  -0.807
  O  O260  1  0.210200  0.041000  0.997900  1.0  -0.6661
  O  O261  1  0.934800  0.005700  0.955540  1.0  -0.716
  O  O262  1  0.858000  0.891100  0.598310  1.0  -0.8073
  O  O263  1  0.830800  0.789800  0.664570  1.0  -0.6632
  O  O264  1  0.070900  0.065200  0.622210  1.0  -0.7136
  O  O265  1  0.033100  0.142000  0.264970  1.0  -0.8083
  O  O266  1  0.959000  0.169200  0.331230  1.0  -0.6642
  O  O267  1  0.994300  0.929100  0.288870  1.0  -0.7115
  O  O268  1  0.891100  0.033100  0.431640  1.0  -0.8077
  O  O269  1  0.789800  0.959000  0.497900  1.0  -0.6655
  O  O270  1  0.065200  0.994300  0.455540  1.0  -0.7151
  O  O271  1  0.142000  0.108900  0.098310  1.0  -0.8076
  O  O272  1  0.169200  0.210200  0.164570  1.0  -0.6633
  O  O273  1  0.929100  0.934800  0.122210  1.0  -0.7131
  O  O274  1  0.966900  0.858000  0.764970  1.0  -0.8094
  O  O275  1  0.041000  0.830800  0.831230  1.0  -0.6649
  O  O276  1  0.005700  0.070900  0.788870  1.0  -0.7112
  O  O277  1  0.142000  0.033100  0.735030  1.0  -0.8069
  O  O278  1  0.169200  0.959000  0.668770  1.0  -0.6652
  O  O279  1  0.929100  0.994300  0.711130  1.0  -0.7157
  O  O280  1  0.966900  0.108900  0.068360  1.0  -0.8075
  O  O281  1  0.041000  0.210200  0.002100  1.0  -0.6647
  O  O282  1  0.005700  0.934800  0.044460  1.0  -0.7136
  O  O283  1  0.891100  0.858000  0.401690  1.0  -0.8082
  O  O284  1  0.789800  0.830800  0.335430  1.0  -0.6654
  O  O285  1  0.065200  0.070900  0.377790  1.0  -0.711
  O  O286  1  0.858000  0.966900  0.235030  1.0  -0.8077
  O  O287  1  0.830800  0.041000  0.168770  1.0  -0.6678
  O  O288  1  0.070900  0.005700  0.211130  1.0  -0.7148
  O  O289  1  0.033100  0.891100  0.568360  1.0  -0.8078
  O  O290  1  0.959000  0.789800  0.502100  1.0  -0.6628
  O  O291  1  0.994300  0.065200  0.544460  1.0  -0.7136
  O  O292  1  0.108900  0.142000  0.901690  1.0  -0.809
  O  O293  1  0.210200  0.169200  0.835430  1.0  -0.6647
  O  O294  1  0.934800  0.929100  0.877790  1.0  -0.711
