# generated using pymatgen
data_PrH15(C9O2)3
_symmetry_space_group_name_H-M   'P 1'
_cell_length_a   16.43930000
_cell_length_b   16.43930000
_cell_length_c   23.77700000
_cell_angle_alpha   90.00000000
_cell_angle_beta   90.00000000
_cell_angle_gamma   120.00000000
_symmetry_Int_Tables_number   1
_chemical_formula_structural   PrH15(C9O2)3
_chemical_formula_sum   'Pr6 H90 C162 O36'
_cell_volume   5564.86113399
_cell_formula_units_Z   6
loop_
 _symmetry_equiv_pos_site_id
 _symmetry_equiv_pos_as_xyz
  1  'x, y, z'
loop_
 _atom_site_type_symbol
 _atom_site_label
 _atom_site_symmetry_multiplicity
 _atom_site_fract_x
 _atom_site_fract_y
 _atom_site_fract_z
 _atom_site_occupancy
 _atom_site_charge
  Pr  Pr1  1  0.915670  0.000000  0.000000  1.0  2.0425
  Pr  Pr2  1  0.000000  0.915670  0.333333  1.0  2.0415
  Pr  Pr3  1  0.084330  0.084330  0.666667  1.0  2.0415
  Pr  Pr4  1  0.084330  0.000000  0.500000  1.0  2.0413
  Pr  Pr5  1  0.000000  0.084330  0.833330  1.0  2.0427
  Pr  Pr6  1  0.915670  0.915670  0.166670  1.0  2.0423
  H  H7  1  0.889600  0.702300  0.091600  1.0  0.1054
  H  H8  1  0.822900  0.543900  0.105900  1.0  0.1194
  H  H9  1  0.611800  0.497100  0.001800  1.0  0.1135
  H  H10  1  0.675200  0.658100  0.991000  1.0  0.1118
  H  H11  1  0.528500  0.379500  0.058100  1.0  0.1054
  H  H12  1  0.388900  0.265800  0.014800  1.0  0.1246
  H  H13  1  0.227100  0.188400  0.016300  1.0  0.1128
  H  H14  1  0.297700  0.187300  0.424930  1.0  0.1047
  H  H15  1  0.456100  0.279000  0.439230  1.0  0.1194
  H  H16  1  0.502900  0.114700  0.335130  1.0  0.1136
  H  H17  1  0.341900  0.017100  0.324330  1.0  0.1114
  H  H18  1  0.620500  0.149000  0.391430  1.0  0.1064
  H  H19  1  0.734200  0.123100  0.348130  1.0  0.125
  H  H20  1  0.811600  0.038700  0.349630  1.0  0.111
  H  H21  1  0.812700  0.110400  0.758270  1.0  0.1055
  H  H22  1  0.721000  0.177100  0.772570  1.0  0.1197
  H  H23  1  0.885300  0.388200  0.668470  1.0  0.1145
  H  H24  1  0.982900  0.324800  0.657670  1.0  0.113
  H  H25  1  0.851000  0.471500  0.724770  1.0  0.105
  H  H26  1  0.876900  0.611100  0.681470  1.0  0.1251
  H  H27  1  0.961300  0.772900  0.682970  1.0  0.1122
  H  H28  1  0.110400  0.297700  0.591600  1.0  0.1053
  H  H29  1  0.177100  0.456100  0.605900  1.0  0.1191
  H  H30  1  0.388200  0.502900  0.501800  1.0  0.1138
  H  H31  1  0.324800  0.341900  0.491000  1.0  0.1121
  H  H32  1  0.471500  0.620500  0.558100  1.0  0.1056
  H  H33  1  0.611100  0.734200  0.514800  1.0  0.1248
  H  H34  1  0.772900  0.811600  0.516300  1.0  0.1123
  H  H35  1  0.702300  0.812700  0.924930  1.0  0.105
  H  H36  1  0.543900  0.721000  0.939230  1.0  0.1195
  H  H37  1  0.497100  0.885300  0.835130  1.0  0.1139
  H  H38  1  0.658100  0.982900  0.824330  1.0  0.1117
  H  H39  1  0.379500  0.851000  0.891430  1.0  0.1058
  H  H40  1  0.265800  0.876900  0.848130  1.0  0.125
  H  H41  1  0.188400  0.961300  0.849630  1.0  0.1119
  H  H42  1  0.187300  0.889600  0.258270  1.0  0.1054
  H  H43  1  0.279000  0.822900  0.272570  1.0  0.1197
  H  H44  1  0.114700  0.611800  0.168470  1.0  0.1145
  H  H45  1  0.017100  0.675200  0.157670  1.0  0.1124
  H  H46  1  0.149000  0.528500  0.224770  1.0  0.1054
  H  H47  1  0.123100  0.388900  0.181470  1.0  0.125
  H  H48  1  0.038700  0.227100  0.182970  1.0  0.1126
  H  H49  1  0.702300  0.889600  0.241730  1.0  0.1057
  H  H50  1  0.543900  0.822900  0.227430  1.0  0.1197
  H  H51  1  0.497100  0.611800  0.331530  1.0  0.1147
  H  H52  1  0.658100  0.675200  0.342330  1.0  0.1124
  H  H53  1  0.379500  0.528500  0.275230  1.0  0.1047
  H  H54  1  0.265800  0.388900  0.318530  1.0  0.1252
  H  H55  1  0.188400  0.227100  0.317030  1.0  0.1119
  H  H56  1  0.187300  0.297700  0.908400  1.0  0.1059
  H  H57  1  0.279000  0.456100  0.894100  1.0  0.1196
  H  H58  1  0.114700  0.502900  0.998200  1.0  0.1145
  H  H59  1  0.017100  0.341900  0.009000  1.0  0.1113
  H  H60  1  0.149000  0.620500  0.941900  1.0  0.1056
  H  H61  1  0.123100  0.734200  0.985200  1.0  0.1252
  H  H62  1  0.038700  0.811600  0.983700  1.0  0.1123
  H  H63  1  0.110400  0.812700  0.575070  1.0  0.1048
  H  H64  1  0.177100  0.721000  0.560770  1.0  0.1192
  H  H65  1  0.388200  0.885300  0.664870  1.0  0.1141
  H  H66  1  0.324800  0.982900  0.675670  1.0  0.1112
  H  H67  1  0.471500  0.851000  0.608570  1.0  0.1057
  H  H68  1  0.611100  0.876900  0.651870  1.0  0.1251
  H  H69  1  0.772900  0.961300  0.650370  1.0  0.111
  H  H70  1  0.297700  0.110400  0.741730  1.0  0.1057
  H  H71  1  0.456100  0.177100  0.727430  1.0  0.1198
  H  H72  1  0.502900  0.388200  0.831530  1.0  0.1147
  H  H73  1  0.341900  0.324800  0.842330  1.0  0.1123
  H  H74  1  0.620500  0.471500  0.775230  1.0  0.1052
  H  H75  1  0.734200  0.611100  0.818530  1.0  0.1253
  H  H76  1  0.811600  0.772900  0.817030  1.0  0.1123
  H  H77  1  0.812700  0.702300  0.408400  1.0  0.1053
  H  H78  1  0.721000  0.543900  0.394100  1.0  0.119
  H  H79  1  0.885300  0.497100  0.498200  1.0  0.1141
  H  H80  1  0.982900  0.658100  0.509000  1.0  0.1115
  H  H81  1  0.851000  0.379500  0.441900  1.0  0.1052
  H  H82  1  0.876900  0.265800  0.485200  1.0  0.1246
  H  H83  1  0.961300  0.188400  0.483700  1.0  0.1125
  H  H84  1  0.889600  0.187300  0.075070  1.0  0.1051
  H  H85  1  0.822900  0.279000  0.060770  1.0  0.1196
  H  H86  1  0.611800  0.114700  0.164870  1.0  0.1144
  H  H87  1  0.675200  0.017100  0.175670  1.0  0.1113
  H  H88  1  0.528500  0.149000  0.108570  1.0  0.1061
  H  H89  1  0.388900  0.123100  0.151870  1.0  0.1254
  H  H90  1  0.227100  0.038700  0.150370  1.0  0.111
  H  H91  1  0.772000  0.386000  0.083330  1.0  0.1186
  H  H92  1  0.614000  0.386000  0.416670  1.0  0.119
  H  H93  1  0.614000  0.228000  0.750000  1.0  0.1169
  H  H94  1  0.228000  0.614000  0.583330  1.0  0.1195
  H  H95  1  0.386000  0.614000  0.916670  1.0  0.1188
  H  H96  1  0.386000  0.772000  0.250000  1.0  0.1171
  C  C97  1  0.825800  0.801300  0.037400  1.0  0.7172
  C  C98  1  0.788300  0.696700  0.042000  1.0  -0.1062
  C  C99  1  0.832400  0.661400  0.074800  1.0  -0.0794
  C  C100  1  0.792800  0.566300  0.082800  1.0  -0.1055
  C  C101  1  0.706600  0.501500  0.056600  1.0  0.0411
  C  C102  1  0.666200  0.538000  0.021300  1.0  -0.1405
  C  C103  1  0.704800  0.634900  0.014100  1.0  -0.05
  C  C104  1  0.657400  0.400900  0.070400  1.0  0.0126
  C  C105  1  0.561300  0.349700  0.069100  1.0  -0.1262
  C  C106  1  0.356300  0.221300  0.042600  1.0  -0.1262
  C  C107  1  0.259400  0.174100  0.043000  1.0  -0.0403
  C  C108  1  0.198700  0.024500  0.370730  1.0  0.7158
  C  C109  1  0.303300  0.091600  0.375330  1.0  -0.1091
  C  C110  1  0.338600  0.171000  0.408130  1.0  -0.0788
  C  C111  1  0.433700  0.226500  0.416130  1.0  -0.1039
  C  C112  1  0.498500  0.205100  0.389930  1.0  0.0411
  C  C113  1  0.462000  0.128200  0.354630  1.0  -0.139
  C  C114  1  0.365100  0.069900  0.347430  1.0  -0.0477
  C  C115  1  0.599100  0.256500  0.403730  1.0  0.0102
  C  C116  1  0.650300  0.211600  0.402430  1.0  -0.1241
  C  C117  1  0.778700  0.135000  0.375930  1.0  -0.1262
  C  C118  1  0.825900  0.085300  0.376330  1.0  -0.0411
  C  C119  1  0.975500  0.174200  0.704070  1.0  0.7173
  C  C120  1  0.908400  0.211700  0.708670  1.0  -0.1054
  C  C121  1  0.829000  0.167600  0.741470  1.0  -0.0799
  C  C122  1  0.773500  0.207200  0.749470  1.0  -0.1048
  C  C123  1  0.794900  0.293400  0.723270  1.0  0.0409
  C  C124  1  0.871800  0.333800  0.687970  1.0  -0.1405
  C  C125  1  0.930100  0.295200  0.680770  1.0  -0.0488
  C  C126  1  0.743500  0.342600  0.737070  1.0  0.0119
  C  C127  1  0.788400  0.438700  0.735770  1.0  -0.1266
  C  C128  1  0.865000  0.643700  0.709270  1.0  -0.1267
  C  C129  1  0.914700  0.740600  0.709670  1.0  -0.0428
  C  C130  1  0.174200  0.198700  0.537400  1.0  0.7177
  C  C131  1  0.211700  0.303300  0.542000  1.0  -0.107
  C  C132  1  0.167600  0.338600  0.574800  1.0  -0.0786
  C  C133  1  0.207200  0.433700  0.582800  1.0  -0.1056
  C  C134  1  0.293400  0.498500  0.556600  1.0  0.0409
  C  C135  1  0.333800  0.462000  0.521300  1.0  -0.1392
  C  C136  1  0.295200  0.365100  0.514100  1.0  -0.0498
  C  C137  1  0.342600  0.599100  0.570400  1.0  0.0126
  C  C138  1  0.438700  0.650300  0.569100  1.0  -0.1268
  C  C139  1  0.643700  0.778700  0.542600  1.0  -0.1264
  C  C140  1  0.740600  0.825900  0.543000  1.0  -0.0416
  C  C141  1  0.801300  0.975500  0.870730  1.0  0.7169
  C  C142  1  0.696700  0.908400  0.875330  1.0  -0.1069
  C  C143  1  0.661400  0.829000  0.908130  1.0  -0.0788
  C  C144  1  0.566300  0.773500  0.916130  1.0  -0.1034
  C  C145  1  0.501500  0.794900  0.889930  1.0  0.0413
  C  C146  1  0.538000  0.871800  0.854630  1.0  -0.1401
  C  C147  1  0.634900  0.930100  0.847430  1.0  -0.0476
  C  C148  1  0.400900  0.743500  0.903730  1.0  0.0106
  C  C149  1  0.349700  0.788400  0.902430  1.0  -0.1243
  C  C150  1  0.221300  0.865000  0.875930  1.0  -0.1269
  C  C151  1  0.174100  0.914700  0.876330  1.0  -0.0404
  C  C152  1  0.024500  0.825800  0.204070  1.0  0.7165
  C  C153  1  0.091600  0.788300  0.208670  1.0  -0.1062
  C  C154  1  0.171000  0.832400  0.241470  1.0  -0.081
  C  C155  1  0.226500  0.792800  0.249470  1.0  -0.1051
  C  C156  1  0.205100  0.706600  0.223270  1.0  0.0409
  C  C157  1  0.128200  0.666200  0.187970  1.0  -0.1396
  C  C158  1  0.069900  0.704800  0.180770  1.0  -0.0489
  C  C159  1  0.256500  0.657400  0.237070  1.0  0.0127
  C  C160  1  0.211600  0.561300  0.235770  1.0  -0.1266
  C  C161  1  0.135000  0.356300  0.209270  1.0  -0.1265
  C  C162  1  0.085300  0.259400  0.209670  1.0  -0.0418
  C  C163  1  0.801300  0.825800  0.295930  1.0  0.7176
  C  C164  1  0.696700  0.788300  0.291330  1.0  -0.1055
  C  C165  1  0.661400  0.832400  0.258530  1.0  -0.0804
  C  C166  1  0.566300  0.792800  0.250530  1.0  -0.1054
  C  C167  1  0.501500  0.706600  0.276730  1.0  0.0408
  C  C168  1  0.538000  0.666200  0.312030  1.0  -0.1421
  C  C169  1  0.634900  0.704800  0.319230  1.0  -0.0499
  C  C170  1  0.400900  0.657400  0.262930  1.0  0.0121
  C  C171  1  0.349700  0.561300  0.264230  1.0  -0.1269
  C  C172  1  0.221300  0.356300  0.290730  1.0  -0.1278
  C  C173  1  0.174100  0.259400  0.290330  1.0  -0.0425
  C  C174  1  0.024500  0.198700  0.962600  1.0  0.7178
  C  C175  1  0.091600  0.303300  0.958000  1.0  -0.1069
  C  C176  1  0.171000  0.338600  0.925200  1.0  -0.0786
  C  C177  1  0.226500  0.433700  0.917200  1.0  -0.1062
  C  C178  1  0.205100  0.498500  0.943400  1.0  0.0406
  C  C179  1  0.128200  0.462000  0.978700  1.0  -0.1417
  C  C180  1  0.069900  0.365100  0.985900  1.0  -0.0505
  C  C181  1  0.256500  0.599100  0.929600  1.0  0.0126
  C  C182  1  0.211600  0.650300  0.930900  1.0  -0.1267
  C  C183  1  0.135000  0.778700  0.957400  1.0  -0.1273
  C  C184  1  0.085300  0.825900  0.957000  1.0  -0.0401
  C  C185  1  0.174200  0.975500  0.629270  1.0  0.7161
  C  C186  1  0.211700  0.908400  0.624670  1.0  -0.1086
  C  C187  1  0.167600  0.829000  0.591870  1.0  -0.0787
  C  C188  1  0.207200  0.773500  0.583870  1.0  -0.1036
  C  C189  1  0.293400  0.794900  0.610070  1.0  0.041
  C  C190  1  0.333800  0.871800  0.645370  1.0  -0.14
  C  C191  1  0.295200  0.930100  0.652570  1.0  -0.0478
  C  C192  1  0.342600  0.743500  0.596270  1.0  0.0106
  C  C193  1  0.438700  0.788400  0.597570  1.0  -0.1249
  C  C194  1  0.643700  0.865000  0.624070  1.0  -0.1288
  C  C195  1  0.740600  0.914700  0.623670  1.0  -0.0412
  C  C196  1  0.198700  0.174200  0.795930  1.0  0.7166
  C  C197  1  0.303300  0.211700  0.791330  1.0  -0.1054
  C  C198  1  0.338600  0.167600  0.758530  1.0  -0.0802
  C  C199  1  0.433700  0.207200  0.750530  1.0  -0.1052
  C  C200  1  0.498500  0.293400  0.776730  1.0  0.0407
  C  C201  1  0.462000  0.333800  0.812030  1.0  -0.1409
  C  C202  1  0.365100  0.295200  0.819230  1.0  -0.0486
  C  C203  1  0.599100  0.342600  0.762930  1.0  0.0127
  C  C204  1  0.650300  0.438700  0.764230  1.0  -0.127
  C  C205  1  0.778700  0.643700  0.790730  1.0  -0.1282
  C  C206  1  0.825900  0.740600  0.790330  1.0  -0.0416
  C  C207  1  0.975500  0.801300  0.462600  1.0  0.7177
  C  C208  1  0.908400  0.696700  0.458000  1.0  -0.1072
  C  C209  1  0.829000  0.661400  0.425200  1.0  -0.0789
  C  C210  1  0.773500  0.566300  0.417200  1.0  -0.1054
  C  C211  1  0.794900  0.501500  0.443400  1.0  0.0407
  C  C212  1  0.871800  0.538000  0.478700  1.0  -0.1406
  C  C213  1  0.930100  0.634900  0.485900  1.0  -0.0495
  C  C214  1  0.743500  0.400900  0.429600  1.0  0.013
  C  C215  1  0.788400  0.349700  0.430900  1.0  -0.1271
  C  C216  1  0.865000  0.221300  0.457400  1.0  -0.1286
  C  C217  1  0.914700  0.174100  0.457000  1.0  -0.0418
  C  C218  1  0.825800  0.024500  0.129270  1.0  0.7168
  C  C219  1  0.788300  0.091600  0.124670  1.0  -0.1077
  C  C220  1  0.832400  0.171000  0.091870  1.0  -0.0785
  C  C221  1  0.792800  0.226500  0.083870  1.0  -0.1043
  C  C222  1  0.706600  0.205100  0.110070  1.0  0.0409
  C  C223  1  0.666200  0.128200  0.145370  1.0  -0.1415
  C  C224  1  0.704800  0.069900  0.152570  1.0  -0.048
  C  C225  1  0.657400  0.256500  0.096270  1.0  0.0108
  C  C226  1  0.561300  0.211600  0.097570  1.0  -0.1247
  C  C227  1  0.356300  0.135000  0.124070  1.0  -0.128
  C  C228  1  0.259400  0.085300  0.123670  1.0  -0.0396
  C  C229  1  0.706700  0.353350  0.083330  1.0  -0.0566
  C  C230  1  0.510800  0.255400  0.083330  1.0  0.0502
  C  C231  1  0.405500  0.202750  0.083330  1.0  0.0625
  C  C232  1  0.209500  0.104750  0.083330  1.0  -0.1175
  C  C233  1  0.104100  0.052050  0.083330  1.0  0.726
  C  C234  1  0.646650  0.353350  0.416670  1.0  -0.0597
  C  C235  1  0.744600  0.255400  0.416670  1.0  0.0514
  C  C236  1  0.797250  0.202750  0.416670  1.0  0.0624
  C  C237  1  0.895250  0.104750  0.416670  1.0  -0.1158
  C  C238  1  0.947950  0.052050  0.416670  1.0  0.7247
  C  C239  1  0.646650  0.293300  0.750000  1.0  -0.0541
  C  C240  1  0.744600  0.489200  0.750000  1.0  0.054
  C  C241  1  0.797250  0.594500  0.750000  1.0  0.0627
  C  C242  1  0.895250  0.790500  0.750000  1.0  -0.1123
  C  C243  1  0.947950  0.895900  0.750000  1.0  0.7292
  C  C244  1  0.293300  0.646650  0.583330  1.0  -0.0598
  C  C245  1  0.489200  0.744600  0.583330  1.0  0.0514
  C  C246  1  0.594500  0.797250  0.583330  1.0  0.0624
  C  C247  1  0.790500  0.895250  0.583330  1.0  -0.1152
  C  C248  1  0.895900  0.947950  0.583330  1.0  0.7254
  C  C249  1  0.353350  0.646650  0.916670  1.0  -0.0565
  C  C250  1  0.255400  0.744600  0.916670  1.0  0.0502
  C  C251  1  0.202750  0.797250  0.916670  1.0  0.0625
  C  C252  1  0.104750  0.895250  0.916670  1.0  -0.1169
  C  C253  1  0.052050  0.947950  0.916670  1.0  0.7264
  C  C254  1  0.353350  0.706700  0.250000  1.0  -0.0544
  C  C255  1  0.255400  0.510800  0.250000  1.0  0.0532
  C  C256  1  0.202750  0.405500  0.250000  1.0  0.0633
  C  C257  1  0.104750  0.209500  0.250000  1.0  -0.1125
  C  C258  1  0.052050  0.104100  0.250000  1.0  0.7277
  O  O259  1  0.891400  0.858400  0.068800  1.0  -0.79
  O  O260  1  0.790000  0.830500  0.001600  1.0  -0.7049
  O  O261  1  0.064200  0.070500  0.045100  1.0  -0.7055
  O  O262  1  0.141600  0.033000  0.402130  1.0  -0.7879
  O  O263  1  0.169500  0.959500  0.334930  1.0  -0.705
  O  O264  1  0.929500  0.993700  0.378430  1.0  -0.7112
  O  O265  1  0.967000  0.108600  0.735470  1.0  -0.788
  O  O266  1  0.040500  0.210000  0.668270  1.0  -0.7069
  O  O267  1  0.006300  0.935800  0.711770  1.0  -0.7084
  O  O268  1  0.108600  0.141600  0.568800  1.0  -0.7888
  O  O269  1  0.210000  0.169500  0.501600  1.0  -0.7043
  O  O270  1  0.935800  0.929500  0.545100  1.0  -0.706
  O  O271  1  0.858400  0.967000  0.902130  1.0  -0.789
  O  O272  1  0.830500  0.040500  0.834930  1.0  -0.707
  O  O273  1  0.070500  0.006300  0.878430  1.0  -0.71
  O  O274  1  0.033000  0.891400  0.235470  1.0  -0.7879
  O  O275  1  0.959500  0.790000  0.168270  1.0  -0.7059
  O  O276  1  0.993700  0.064200  0.211770  1.0  -0.7095
  O  O277  1  0.858400  0.891400  0.264530  1.0  -0.7883
  O  O278  1  0.830500  0.790000  0.331730  1.0  -0.7062
  O  O279  1  0.070500  0.064200  0.288230  1.0  -0.709
  O  O280  1  0.033000  0.141600  0.931200  1.0  -0.7903
  O  O281  1  0.959500  0.169500  0.998400  1.0  -0.7039
  O  O282  1  0.993700  0.929500  0.954900  1.0  -0.7055
  O  O283  1  0.108600  0.967000  0.597870  1.0  -0.7884
  O  O284  1  0.210000  0.040500  0.665070  1.0  -0.7056
  O  O285  1  0.935800  0.006300  0.621570  1.0  -0.711
  O  O286  1  0.141600  0.108600  0.764530  1.0  -0.7879
  O  O287  1  0.169500  0.210000  0.831730  1.0  -0.7064
  O  O288  1  0.929500  0.935800  0.788230  1.0  -0.7094
  O  O289  1  0.967000  0.858400  0.431200  1.0  -0.7893
  O  O290  1  0.040500  0.830500  0.498400  1.0  -0.7048
  O  O291  1  0.006300  0.070500  0.454900  1.0  -0.7057
  O  O292  1  0.891400  0.033000  0.097870  1.0  -0.7893
  O  O293  1  0.790000  0.959500  0.165070  1.0  -0.7061
  O  O294  1  0.064200  0.993700  0.121570  1.0  -0.7109
