# generated using pymatgen
data_Co2H14C24Br4N4O9
_symmetry_space_group_name_H-M   'P 1'
_cell_length_a   14.85300000
_cell_length_b   17.01000000
_cell_length_c   14.53800000
_cell_angle_alpha   90.00000000
_cell_angle_beta   120.72000000
_cell_angle_gamma   90.00000000
_symmetry_Int_Tables_number   1
_chemical_formula_structural   Co2H14C24Br4N4O9
_chemical_formula_sum   'Co8 H56 C96 Br16 N16 O36'
_cell_volume   3157.59884406
_cell_formula_units_Z   4
loop_
 _symmetry_equiv_pos_site_id
 _symmetry_equiv_pos_as_xyz
  1  'x, y, z'
loop_
 _atom_site_type_symbol
 _atom_site_label
 _atom_site_symmetry_multiplicity
 _atom_site_fract_x
 _atom_site_fract_y
 _atom_site_fract_z
 _atom_site_occupancy
 _atom_site_charge
  Co  Co1  1  0.092210  0.120650  0.207850  1.0  0.9207
  Co  Co2  1  0.592210  0.620650  0.207850  1.0  0.9207
  Co  Co3  1  0.907790  0.120650  0.292150  1.0  0.925
  Co  Co4  1  0.407790  0.620650  0.292150  1.0  0.925
  Co  Co5  1  0.907790  0.879350  0.792150  1.0  0.9263
  Co  Co6  1  0.407790  0.379350  0.792150  1.0  0.9263
  Co  Co7  1  0.092210  0.879350  0.707850  1.0  0.9214
  Co  Co8  1  0.592210  0.379350  0.707850  1.0  0.9214
  H  H9  1  0.046600  0.223500  0.311100  1.0  0.3413
  H  H10  1  0.291800  0.016300  0.309800  1.0  0.1033
  H  H11  1  0.071600  0.051100  0.008000  1.0  0.0965
  H  H12  1  0.304700  0.895100  0.076200  1.0  0.1094
  H  H13  1  0.189400  0.231900  0.110900  1.0  0.1
  H  H14  1  0.268300  0.192800  0.410000  1.0  0.0933
  H  H15  1  0.442200  0.342700  0.346300  1.0  0.1312
  H  H16  1  0.546600  0.723500  0.311100  1.0  0.3413
  H  H17  1  0.791800  0.516300  0.309800  1.0  0.1033
  H  H18  1  0.571600  0.551100  0.008000  1.0  0.0965
  H  H19  1  0.804700  0.395100  0.076200  1.0  0.1094
  H  H20  1  0.689400  0.731900  0.110900  1.0  0.1
  H  H21  1  0.768300  0.692800  0.410000  1.0  0.0933
  H  H22  1  0.942200  0.842700  0.346300  1.0  0.1312
  H  H23  1  0.953400  0.223500  0.188900  1.0  0.3421
  H  H24  1  0.708200  0.016300  0.190200  1.0  0.1037
  H  H25  1  0.928400  0.051100  0.492000  1.0  0.0956
  H  H26  1  0.695300  0.895100  0.423800  1.0  0.1106
  H  H27  1  0.810600  0.231900  0.389100  1.0  0.0988
  H  H28  1  0.731700  0.192800  0.090000  1.0  0.0923
  H  H29  1  0.557800  0.342700  0.153700  1.0  0.131
  H  H30  1  0.453400  0.723500  0.188900  1.0  0.3421
  H  H31  1  0.208200  0.516300  0.190200  1.0  0.1037
  H  H32  1  0.428400  0.551100  0.492000  1.0  0.0956
  H  H33  1  0.195300  0.395100  0.423800  1.0  0.1106
  H  H34  1  0.310600  0.731900  0.389100  1.0  0.0988
  H  H35  1  0.231700  0.692800  0.090000  1.0  0.0923
  H  H36  1  0.057800  0.842700  0.153700  1.0  0.131
  H  H37  1  0.953400  0.776500  0.688900  1.0  0.3408
  H  H38  1  0.708200  0.983700  0.690200  1.0  0.1039
  H  H39  1  0.928400  0.948900  0.992000  1.0  0.0959
  H  H40  1  0.695300  0.104900  0.923800  1.0  0.1098
  H  H41  1  0.810600  0.768100  0.889100  1.0  0.0992
  H  H42  1  0.731700  0.807200  0.590000  1.0  0.0918
  H  H43  1  0.557800  0.657300  0.653700  1.0  0.1298
  H  H44  1  0.453400  0.276500  0.688900  1.0  0.3408
  H  H45  1  0.208200  0.483700  0.690200  1.0  0.1039
  H  H46  1  0.428400  0.448900  0.992000  1.0  0.0959
  H  H47  1  0.195300  0.604900  0.923800  1.0  0.1098
  H  H48  1  0.310600  0.268100  0.889100  1.0  0.0992
  H  H49  1  0.231700  0.307200  0.590000  1.0  0.0918
  H  H50  1  0.057800  0.157300  0.653700  1.0  0.1298
  H  H51  1  0.046600  0.776500  0.811100  1.0  0.3412
  H  H52  1  0.291800  0.983700  0.809800  1.0  0.1034
  H  H53  1  0.071600  0.948900  0.508000  1.0  0.0962
  H  H54  1  0.304700  0.104900  0.576200  1.0  0.1084
  H  H55  1  0.189400  0.768100  0.610900  1.0  0.1
  H  H56  1  0.268300  0.807200  0.910000  1.0  0.0925
  H  H57  1  0.442200  0.657300  0.846300  1.0  0.1309
  H  H58  1  0.546600  0.276500  0.811100  1.0  0.3412
  H  H59  1  0.791800  0.483700  0.809800  1.0  0.1034
  H  H60  1  0.571600  0.448900  0.508000  1.0  0.0962
  H  H61  1  0.804700  0.604900  0.576200  1.0  0.1084
  H  H62  1  0.689400  0.268100  0.610900  1.0  0.1
  H  H63  1  0.768300  0.307200  0.910000  1.0  0.0925
  H  H64  1  0.942200  0.157300  0.846300  1.0  0.1309
  C  C65  1  0.311500  0.949400  0.205600  1.0  -0.0614
  C  C66  1  0.262900  0.005400  0.235900  1.0  0.1521
  C  C67  1  0.134600  0.026000  0.059200  1.0  0.1628
  C  C68  1  0.179900  0.971900  0.023600  1.0  -0.1505
  C  C69  1  0.271600  0.932100  0.098300  1.0  -0.0443
  C  C70  1  0.119700  0.951400  0.904400  1.0  0.6688
  C  C71  1  0.314400  0.294600  0.217000  1.0  -0.0048
  C  C72  1  0.233700  0.242500  0.185000  1.0  0.1595
  C  C73  1  0.280600  0.218700  0.359600  1.0  0.1452
  C  C74  1  0.366300  0.269100  0.396600  1.0  -0.1581
  C  C75  1  0.384300  0.308200  0.323600  1.0  -0.0396
  C  C76  1  0.435900  0.278900  0.517500  1.0  0.6694
  C  C77  1  0.811500  0.449400  0.205600  1.0  -0.059
  C  C78  1  0.762900  0.505400  0.235900  1.0  0.1521
  C  C79  1  0.634600  0.526000  0.059200  1.0  0.1628
  C  C80  1  0.679900  0.471900  0.023600  1.0  -0.1505
  C  C81  1  0.771600  0.432100  0.098300  1.0  -0.0443
  C  C82  1  0.619700  0.451400  0.904400  1.0  0.6688
  C  C83  1  0.814400  0.794600  0.217000  1.0  -0.0048
  C  C84  1  0.733700  0.742500  0.185000  1.0  0.1595
  C  C85  1  0.780600  0.718700  0.359600  1.0  0.1452
  C  C86  1  0.866300  0.769100  0.396600  1.0  -0.1581
  C  C87  1  0.884300  0.808200  0.323600  1.0  -0.0396
  C  C88  1  0.935900  0.778900  0.517500  1.0  0.6694
  C  C89  1  0.688500  0.949400  0.294400  1.0  -0.0614
  C  C90  1  0.737100  0.005400  0.264100  1.0  0.1543
  C  C91  1  0.865400  0.026000  0.440800  1.0  0.1599
  C  C92  1  0.820100  0.971900  0.476400  1.0  -0.1498
  C  C93  1  0.728400  0.932100  0.401700  1.0  -0.0428
  C  C94  1  0.880300  0.951400  0.595600  1.0  0.668
  C  C95  1  0.685600  0.294600  0.283000  1.0  0.0104
  C  C96  1  0.766300  0.242500  0.315000  1.0  0.159
  C  C97  1  0.719400  0.218700  0.140400  1.0  0.1413
  C  C98  1  0.633700  0.269100  0.103400  1.0  -0.1587
  C  C99  1  0.615700  0.308200  0.176400  1.0  -0.0392
  C  C100  1  0.564100  0.278900  0.982500  1.0  0.6707
  C  C101  1  0.188500  0.449400  0.294400  1.0  -0.0594
  C  C102  1  0.237100  0.505400  0.264100  1.0  0.1543
  C  C103  1  0.365400  0.526000  0.440800  1.0  0.1599
  C  C104  1  0.320100  0.471900  0.476400  1.0  -0.1498
  C  C105  1  0.228400  0.432100  0.401700  1.0  -0.0428
  C  C106  1  0.380300  0.451400  0.595600  1.0  0.668
  C  C107  1  0.185600  0.794600  0.283000  1.0  0.0104
  C  C108  1  0.266300  0.742500  0.315000  1.0  0.159
  C  C109  1  0.219400  0.718700  0.140400  1.0  0.1413
  C  C110  1  0.133700  0.769100  0.103400  1.0  -0.1587
  C  C111  1  0.115700  0.808200  0.176400  1.0  -0.0392
  C  C112  1  0.064100  0.778900  0.982500  1.0  0.6707
  C  C113  1  0.688500  0.050600  0.794400  1.0  -0.0626
  C  C114  1  0.737100  0.994600  0.764100  1.0  0.1544
  C  C115  1  0.865400  0.974000  0.940800  1.0  0.1609
  C  C116  1  0.820100  0.028100  0.976400  1.0  -0.1497
  C  C117  1  0.728400  0.067900  0.901700  1.0  -0.0437
  C  C118  1  0.880300  0.048600  0.095600  1.0  0.6691
  C  C119  1  0.685600  0.705400  0.783000  1.0  0.0103
  C  C120  1  0.766300  0.757500  0.815000  1.0  0.1589
  C  C121  1  0.719400  0.781300  0.640400  1.0  0.1431
  C  C122  1  0.633700  0.730900  0.603400  1.0  -0.1576
  C  C123  1  0.615700  0.691800  0.676400  1.0  -0.0397
  C  C124  1  0.564100  0.721100  0.482500  1.0  0.6706
  C  C125  1  0.188500  0.550600  0.794400  1.0  -0.0626
  C  C126  1  0.237100  0.494600  0.764100  1.0  0.1544
  C  C127  1  0.365400  0.474000  0.940800  1.0  0.1608
  C  C128  1  0.320100  0.528100  0.976400  1.0  -0.1497
  C  C129  1  0.228400  0.567900  0.901700  1.0  -0.0437
  C  C130  1  0.380300  0.548600  0.095600  1.0  0.6691
  C  C131  1  0.185600  0.205400  0.783000  1.0  0.0103
  C  C132  1  0.266300  0.257500  0.815000  1.0  0.1589
  C  C133  1  0.219400  0.281300  0.640400  1.0  0.1431
  C  C134  1  0.133700  0.230900  0.603400  1.0  -0.1576
  C  C135  1  0.115700  0.191800  0.676400  1.0  -0.0397
  C  C136  1  0.064100  0.221100  0.482500  1.0  0.6711
  C  C137  1  0.311500  0.050600  0.705600  1.0  -0.0623
  C  C138  1  0.262900  0.994600  0.735900  1.0  0.1529
  C  C139  1  0.134600  0.974000  0.559200  1.0  0.1627
  C  C140  1  0.179900  0.028100  0.523600  1.0  -0.1512
  C  C141  1  0.271600  0.067900  0.598300  1.0  -0.0445
  C  C142  1  0.119700  0.048600  0.404400  1.0  0.6695
  C  C143  1  0.314400  0.705400  0.717000  1.0  -0.0051
  C  C144  1  0.233700  0.757500  0.685000  1.0  0.1596
  C  C145  1  0.280600  0.781300  0.859600  1.0  0.1462
  C  C146  1  0.366300  0.730900  0.896600  1.0  -0.1576
  C  C147  1  0.384300  0.691800  0.823600  1.0  -0.0395
  C  C148  1  0.435900  0.721100  0.017500  1.0  0.6703
  C  C149  1  0.811500  0.550600  0.705600  1.0  -0.0623
  C  C150  1  0.762900  0.494600  0.735900  1.0  0.1529
  C  C151  1  0.634600  0.474000  0.559200  1.0  0.1648
  C  C152  1  0.679900  0.528100  0.523600  1.0  -0.1512
  C  C153  1  0.771600  0.567900  0.598300  1.0  -0.0445
  C  C154  1  0.619700  0.548600  0.404400  1.0  0.6695
  C  C155  1  0.814400  0.205400  0.717000  1.0  -0.0051
  C  C156  1  0.733700  0.257500  0.685000  1.0  0.1596
  C  C157  1  0.780600  0.281300  0.859600  1.0  0.1462
  C  C158  1  0.866300  0.230900  0.896600  1.0  -0.1576
  C  C159  1  0.884300  0.191800  0.823600  1.0  -0.0395
  C  C160  1  0.935900  0.221100  0.017500  1.0  0.6703
  Br  Br161  1  0.425020  0.893350  0.313460  1.0  -0.0641
  Br  Br162  1  0.330010  0.347820  0.111350  1.0  -0.0425
  Br  Br163  1  0.925020  0.393350  0.313460  1.0  -0.0641
  Br  Br164  1  0.830010  0.847820  0.111350  1.0  -0.0425
  Br  Br165  1  0.574980  0.893350  0.186540  1.0  -0.0647
  Br  Br166  1  0.669990  0.347820  0.388650  1.0  -0.0443
  Br  Br167  1  0.074980  0.393350  0.186540  1.0  -0.0647
  Br  Br168  1  0.169990  0.847820  0.388650  1.0  -0.0443
  Br  Br169  1  0.574980  0.106650  0.686540  1.0  -0.0649
  Br  Br170  1  0.669990  0.652180  0.888650  1.0  -0.0443
  Br  Br171  1  0.074980  0.606650  0.686540  1.0  -0.0649
  Br  Br172  1  0.169990  0.152180  0.888650  1.0  -0.0443
  Br  Br173  1  0.425020  0.106650  0.813460  1.0  -0.0647
  Br  Br174  1  0.330010  0.652180  0.611350  1.0  -0.0424
  Br  Br175  1  0.925020  0.606650  0.813460  1.0  -0.0647
  Br  Br176  1  0.830010  0.152180  0.611350  1.0  -0.0424
  N  N177  1  0.176300  0.044500  0.163800  1.0  -0.3269
  N  N178  1  0.215700  0.205800  0.256000  1.0  -0.3008
  N  N179  1  0.676300  0.544500  0.163800  1.0  -0.3269
  N  N180  1  0.715700  0.705800  0.256000  1.0  -0.3008
  N  N181  1  0.823700  0.044500  0.336200  1.0  -0.3274
  N  N182  1  0.784300  0.205800  0.244000  1.0  -0.3008
  N  N183  1  0.323700  0.544500  0.336200  1.0  -0.3274
  N  N184  1  0.284300  0.705800  0.244000  1.0  -0.3008
  N  N185  1  0.823700  0.955500  0.836200  1.0  -0.3279
  N  N186  1  0.784300  0.794200  0.744000  1.0  -0.3011
  N  N187  1  0.323700  0.455500  0.836200  1.0  -0.3279
  N  N188  1  0.284300  0.294200  0.744000  1.0  -0.3011
  N  N189  1  0.176300  0.955500  0.663800  1.0  -0.3265
  N  N190  1  0.215700  0.794200  0.756000  1.0  -0.3007
  N  N191  1  0.676300  0.455500  0.663800  1.0  -0.3265
  N  N192  1  0.715700  0.294200  0.756000  1.0  -0.3007
  O  O193  1  0.170300  0.922300  0.864800  1.0  -0.5679
  O  O194  1  0.024100  0.963500  0.861000  1.0  -0.5867
  O  O195  1  0.510700  0.326600  0.551200  1.0  -0.5687
  O  O196  1  0.408300  0.240000  0.572600  1.0  -0.5609
  O  O197  1  0.670300  0.422300  0.864800  1.0  -0.5679
  O  O198  1  0.524100  0.463500  0.861000  1.0  -0.5867
  O  O199  1  0.010700  0.826600  0.551200  1.0  -0.5687
  O  O200  1  0.908300  0.740000  0.572600  1.0  -0.5609
  O  O201  1  0.829700  0.922300  0.635200  1.0  -0.5688
  O  O202  1  0.975900  0.963500  0.639000  1.0  -0.5878
  O  O203  1  0.489300  0.326600  0.948800  1.0  -0.5681
  O  O204  1  0.591700  0.240000  0.927400  1.0  -0.5586
  O  O205  1  0.329700  0.422300  0.635200  1.0  -0.5688
  O  O206  1  0.475900  0.463500  0.639000  1.0  -0.5878
  O  O207  1  0.989300  0.826600  0.948800  1.0  -0.5681
  O  O208  1  0.091700  0.740000  0.927400  1.0  -0.5583
  O  O209  1  0.829700  0.077700  0.135200  1.0  -0.5689
  O  O210  1  0.975900  0.036500  0.139000  1.0  -0.5884
  O  O211  1  0.489300  0.673400  0.448800  1.0  -0.5682
  O  O212  1  0.591700  0.760000  0.427400  1.0  -0.5596
  O  O213  1  0.329700  0.577700  0.135200  1.0  -0.5689
  O  O214  1  0.475900  0.536500  0.139000  1.0  -0.5884
  O  O215  1  0.989300  0.173400  0.448800  1.0  -0.5682
  O  O216  1  0.091700  0.260000  0.427400  1.0  -0.5595
  O  O217  1  0.170300  0.077700  0.364800  1.0  -0.5682
  O  O218  1  0.024100  0.036500  0.361000  1.0  -0.5886
  O  O219  1  0.510700  0.673400  0.051200  1.0  -0.5684
  O  O220  1  0.408300  0.760000  0.072600  1.0  -0.5609
  O  O221  1  0.670300  0.577700  0.364800  1.0  -0.5682
  O  O222  1  0.524100  0.536500  0.361000  1.0  -0.5886
  O  O223  1  0.010700  0.173400  0.051200  1.0  -0.5684
  O  O224  1  0.908300  0.260000  0.072600  1.0  -0.5609
  O  O225  1  0.000000  0.189200  0.250000  1.0  -0.7657
  O  O226  1  0.500000  0.689200  0.250000  1.0  -0.7657
  O  O227  1  0.000000  0.810800  0.750000  1.0  -0.7669
  O  O228  1  0.500000  0.310800  0.750000  1.0  -0.7669
