# generated using pymatgen
data_Pr2Co3H16C40(NO3)8
_symmetry_space_group_name_H-M   'P 1'
_cell_length_a   7.65750000
_cell_length_b   10.47700000
_cell_length_c   30.45600000
_cell_angle_alpha   99.06000000
_cell_angle_beta   90.00000000
_cell_angle_gamma   90.00000000
_symmetry_Int_Tables_number   1
_chemical_formula_structural   Pr2Co3H16C40(NO3)8
_chemical_formula_sum   'Pr4 Co6 H32 C80 N16 O48'
_cell_volume   2412.92856150
_cell_formula_units_Z   2
loop_
 _symmetry_equiv_pos_site_id
 _symmetry_equiv_pos_as_xyz
  1  'x, y, z'
loop_
 _atom_site_type_symbol
 _atom_site_label
 _atom_site_symmetry_multiplicity
 _atom_site_fract_x
 _atom_site_fract_y
 _atom_site_fract_z
 _atom_site_occupancy
 _atom_site_charge
  Pr  Pr1  1  0.371530  0.552070  0.768210  1.0  2.3047
  Pr  Pr2  1  0.871530  0.447930  0.731790  1.0  2.3036
  Pr  Pr3  1  0.628470  0.447930  0.231790  1.0  2.3036
  Pr  Pr4  1  0.128470  0.552070  0.268210  1.0  2.3034
  Co  Co5  1  0.445810  0.713540  0.130050  1.0  0.9646
  Co  Co6  1  0.945810  0.286460  0.369950  1.0  0.966
  Co  Co7  1  0.554190  0.286460  0.869950  1.0  0.9675
  Co  Co8  1  0.054190  0.713540  0.630050  1.0  0.9659
  Co  Co9  1  0.500000  0.000000  0.000000  1.0  0.9342
  Co  Co10  1  0.000000  0.000000  0.500000  1.0  0.9342
  H  H11  1  0.556200  0.756400  0.918300  1.0  0.1373
  H  H12  1  0.150200  0.798300  0.878000  1.0  0.1339
  H  H13  1  0.877700  0.127400  0.985600  1.0  0.1095
  H  H14  1  0.818500  0.077100  0.216900  1.0  0.1413
  H  H15  1  0.424900  0.023000  0.186100  1.0  0.1296
  H  H16  1  0.028600  0.688800  0.124300  1.0  0.1156
  H  H17  1  0.105900  0.035600  0.938000  1.0  0.2915
  H  H18  1  0.812900  0.833800  0.160300  1.0  0.2966
  H  H19  1  0.056200  0.243600  0.581700  1.0  0.1365
  H  H20  1  0.650200  0.201700  0.622000  1.0  0.1338
  H  H21  1  0.377700  0.872600  0.514400  1.0  0.1088
  H  H22  1  0.318500  0.922900  0.283100  1.0  0.141
  H  H23  1  0.924900  0.977000  0.313900  1.0  0.1291
  H  H24  1  0.528600  0.311200  0.375700  1.0  0.1168
  H  H25  1  0.605900  0.964400  0.562000  1.0  0.2917
  H  H26  1  0.312900  0.166200  0.339700  1.0  0.2978
  H  H27  1  0.443800  0.243600  0.081700  1.0  0.1375
  H  H28  1  0.849800  0.201700  0.122000  1.0  0.1342
  H  H29  1  0.122300  0.872600  0.014400  1.0  0.1087
  H  H30  1  0.181500  0.922900  0.783100  1.0  0.1412
  H  H31  1  0.575100  0.977000  0.813900  1.0  0.1294
  H  H32  1  0.971400  0.311200  0.875700  1.0  0.1166
  H  H33  1  0.894100  0.964400  0.062000  1.0  0.2929
  H  H34  1  0.187100  0.166200  0.839700  1.0  0.2978
  H  H35  1  0.943800  0.756400  0.418300  1.0  0.1382
  H  H36  1  0.349800  0.798300  0.378000  1.0  0.1344
  H  H37  1  0.622300  0.127400  0.485600  1.0  0.1093
  H  H38  1  0.681500  0.077100  0.716900  1.0  0.1415
  H  H39  1  0.075100  0.023000  0.686100  1.0  0.1298
  H  H40  1  0.471400  0.688800  0.624300  1.0  0.1156
  H  H41  1  0.394100  0.035600  0.438000  1.0  0.2932
  H  H42  1  0.687100  0.833800  0.660300  1.0  0.2972
  C  C43  1  0.470300  0.790200  0.044550  1.0  0.5355
  C  C44  1  0.567700  0.894900  0.077080  1.0  0.5852
  C  C45  1  0.651600  0.555300  0.861530  1.0  0.7442
  C  C46  1  0.755000  0.673200  0.879450  1.0  -0.0783
  C  C47  1  0.675300  0.764600  0.910470  1.0  -0.1271
  C  C48  1  0.775000  0.869200  0.929950  1.0  0.1553
  C  C49  1  0.949200  0.882000  0.916600  1.0  0.0864
  C  C50  1  0.031500  0.789600  0.886060  1.0  -0.1041
  C  C51  1  0.932700  0.684100  0.867790  1.0  -0.1379
  C  C52  1  0.013700  0.584100  0.833630  1.0  0.7388
  C  C53  1  0.871300  0.047600  0.965950  1.0  0.2356
  C  C54  1  0.998800  0.261600  0.266940  1.0  0.7441
  C  C55  1  0.060400  0.156700  0.230440  1.0  -0.0585
  C  C56  1  0.940100  0.066100  0.211420  1.0  -0.1414
  C  C57  1  0.005300  0.958000  0.183930  1.0  0.1199
  C  C58  1  0.184500  0.938800  0.175330  1.0  0.1594
  C  C59  1  0.303900  0.033100  0.192670  1.0  -0.0957
  C  C60  1  0.241900  0.142300  0.219840  1.0  -0.1397
  C  C61  1  0.368900  0.247300  0.234950  1.0  0.71
  C  C62  1  0.051700  0.770700  0.141620  1.0  0.2529
  C  C63  1  0.970300  0.209800  0.455450  1.0  0.5319
  C  C64  1  0.067700  0.105100  0.422920  1.0  0.5844
  C  C65  1  0.151600  0.444700  0.638470  1.0  0.7453
  C  C66  1  0.255000  0.326800  0.620550  1.0  -0.0777
  C  C67  1  0.175300  0.235400  0.589530  1.0  -0.1274
  C  C68  1  0.275000  0.130800  0.570050  1.0  0.1559
  C  C69  1  0.449200  0.118000  0.583400  1.0  0.085
  C  C70  1  0.531500  0.210400  0.613940  1.0  -0.1038
  C  C71  1  0.432700  0.315900  0.632210  1.0  -0.1381
  C  C72  1  0.513700  0.415900  0.666370  1.0  0.7387
  C  C73  1  0.371300  0.952400  0.534050  1.0  0.2359
  C  C74  1  0.498800  0.738400  0.233060  1.0  0.7447
  C  C75  1  0.560400  0.843300  0.269560  1.0  -0.0579
  C  C76  1  0.440100  0.933900  0.288580  1.0  -0.1411
  C  C77  1  0.505300  0.042000  0.316070  1.0  0.1199
  C  C78  1  0.684500  0.061200  0.324670  1.0  0.1595
  C  C79  1  0.803900  0.966900  0.307330  1.0  -0.0961
  C  C80  1  0.741900  0.857700  0.280160  1.0  -0.1393
  C  C81  1  0.868900  0.752700  0.265050  1.0  0.7106
  C  C82  1  0.551700  0.229300  0.358380  1.0  0.2538
  C  C83  1  0.529700  0.209800  0.955450  1.0  0.5319
  C  C84  1  0.432300  0.105100  0.922920  1.0  0.5844
  C  C85  1  0.348400  0.444700  0.138470  1.0  0.7447
  C  C86  1  0.245000  0.326800  0.120550  1.0  -0.0777
  C  C87  1  0.324700  0.235400  0.089530  1.0  -0.1261
  C  C88  1  0.225000  0.130800  0.070050  1.0  0.1559
  C  C89  1  0.050800  0.118000  0.083400  1.0  0.0861
  C  C90  1  0.968500  0.210400  0.113940  1.0  -0.1038
  C  C91  1  0.067300  0.315900  0.132210  1.0  -0.138
  C  C92  1  0.986300  0.415900  0.166370  1.0  0.7277
  C  C93  1  0.128700  0.952400  0.034050  1.0  0.2359
  C  C94  1  0.001200  0.738400  0.733060  1.0  0.7447
  C  C95  1  0.939600  0.843300  0.769560  1.0  -0.0583
  C  C96  1  0.059900  0.933900  0.788580  1.0  -0.1411
  C  C97  1  0.994700  0.042000  0.816070  1.0  0.12
  C  C98  1  0.815500  0.061200  0.824670  1.0  0.1582
  C  C99  1  0.696100  0.966900  0.807330  1.0  -0.0958
  C  C100  1  0.758100  0.857700  0.780160  1.0  -0.1389
  C  C101  1  0.631100  0.752700  0.765050  1.0  0.71
  C  C102  1  0.948300  0.229300  0.858380  1.0  0.2542
  C  C103  1  0.029700  0.790200  0.544550  1.0  0.5347
  C  C104  1  0.932300  0.894900  0.577080  1.0  0.5842
  C  C105  1  0.848400  0.555300  0.361530  1.0  0.744
  C  C106  1  0.745000  0.673200  0.379450  1.0  -0.0782
  C  C107  1  0.824700  0.764600  0.410470  1.0  -0.1264
  C  C108  1  0.725000  0.869200  0.429950  1.0  0.1557
  C  C109  1  0.550800  0.882000  0.416600  1.0  0.0873
  C  C110  1  0.468500  0.789600  0.386060  1.0  -0.1031
  C  C111  1  0.567300  0.684100  0.367790  1.0  -0.1375
  C  C112  1  0.486300  0.584100  0.333630  1.0  0.7278
  C  C113  1  0.628700  0.047600  0.465950  1.0  0.2352
  C  C114  1  0.501200  0.261600  0.766940  1.0  0.7441
  C  C115  1  0.439600  0.156700  0.730440  1.0  -0.0587
  C  C116  1  0.559900  0.066100  0.711420  1.0  -0.1414
  C  C117  1  0.494700  0.958000  0.683930  1.0  0.1199
  C  C118  1  0.315500  0.938800  0.675330  1.0  0.1578
  C  C119  1  0.196100  0.033100  0.692670  1.0  -0.0956
  C  C120  1  0.258100  0.142300  0.719840  1.0  -0.1394
  C  C121  1  0.131100  0.247300  0.734950  1.0  0.7086
  C  C122  1  0.448300  0.770700  0.641620  1.0  0.2522
  N  N123  1  0.731700  0.973900  0.961700  1.0  -0.4356
  N  N124  1  0.003100  0.999300  0.939950  1.0  -0.2622
  N  N125  1  0.210300  0.819000  0.148630  1.0  -0.4665
  N  N126  1  0.925900  0.849300  0.161490  1.0  -0.2606
  N  N127  1  0.231700  0.026100  0.538300  1.0  -0.4362
  N  N128  1  0.503100  0.000700  0.560050  1.0  -0.2623
  N  N129  1  0.710300  0.181000  0.351370  1.0  -0.4666
  N  N130  1  0.425900  0.150700  0.338510  1.0  -0.2606
  N  N131  1  0.268300  0.026100  0.038300  1.0  -0.4369
  N  N132  1  0.996900  0.000700  0.060050  1.0  -0.2622
  N  N133  1  0.789700  0.181000  0.851370  1.0  -0.4668
  N  N134  1  0.074100  0.150700  0.838510  1.0  -0.2614
  N  N135  1  0.768300  0.973900  0.461700  1.0  -0.436
  N  N136  1  0.496900  0.999300  0.439950  1.0  -0.2622
  N  N137  1  0.289700  0.819000  0.648630  1.0  -0.4666
  N  N138  1  0.574100  0.849300  0.661490  1.0  -0.2621
  O  O139  1  0.629800  0.989600  0.060990  1.0  -0.5529
  O  O140  1  0.464400  0.803400  0.004150  1.0  -0.5289
  O  O141  1  0.580300  0.877500  0.116420  1.0  -0.5357
  O  O142  1  0.405200  0.699600  0.061080  1.0  -0.5107
  O  O143  1  0.686500  0.455100  0.877440  1.0  -0.5806
  O  O144  1  0.529000  0.566300  0.834920  1.0  -0.7467
  O  O145  1  0.914300  0.508500  0.809190  1.0  -0.7281
  O  O146  1  0.178000  0.582400  0.830880  1.0  -0.7057
  O  O147  1  0.039600  0.247000  0.305150  1.0  -0.5927
  O  O148  1  0.910700  0.356800  0.257020  1.0  -0.8309
  O  O149  1  0.314400  0.361700  0.249430  1.0  -0.8457
  O  O150  1  0.530600  0.225600  0.231030  1.0  -0.6876
  O  O151  1  0.129800  0.010400  0.439010  1.0  -0.5527
  O  O152  1  0.964400  0.196600  0.495850  1.0  -0.5291
  O  O153  1  0.080300  0.122500  0.383580  1.0  -0.5365
  O  O154  1  0.905200  0.300400  0.438920  1.0  -0.5107
  O  O155  1  0.186500  0.544900  0.622560  1.0  -0.5807
  O  O156  1  0.029000  0.433700  0.665080  1.0  -0.746
  O  O157  1  0.414300  0.491500  0.690810  1.0  -0.7269
  O  O158  1  0.678000  0.417600  0.669120  1.0  -0.7055
  O  O159  1  0.539600  0.753000  0.194850  1.0  -0.5928
  O  O160  1  0.410700  0.643200  0.242980  1.0  -0.8331
  O  O161  1  0.814400  0.638300  0.250570  1.0  -0.8466
  O  O162  1  0.030600  0.774400  0.268970  1.0  -0.6874
  O  O163  1  0.370200  0.010400  0.939010  1.0  -0.5528
  O  O164  1  0.535600  0.196600  0.995850  1.0  -0.5293
  O  O165  1  0.419700  0.122500  0.883580  1.0  -0.5359
  O  O166  1  0.594800  0.300400  0.938920  1.0  -0.5099
  O  O167  1  0.313500  0.544900  0.122560  1.0  -0.5802
  O  O168  1  0.471000  0.433700  0.165080  1.0  -0.7471
  O  O169  1  0.085700  0.491500  0.190810  1.0  -0.7271
  O  O170  1  0.822000  0.417600  0.169120  1.0  -0.705
  O  O171  1  0.960400  0.753000  0.694850  1.0  -0.5922
  O  O172  1  0.089300  0.643200  0.742980  1.0  -0.8337
  O  O173  1  0.685600  0.638300  0.750570  1.0  -0.847
  O  O174  1  0.469400  0.774400  0.768970  1.0  -0.6875
  O  O175  1  0.870200  0.989600  0.560990  1.0  -0.5525
  O  O176  1  0.035600  0.803400  0.504150  1.0  -0.529
  O  O177  1  0.919700  0.877500  0.616420  1.0  -0.5348
  O  O178  1  0.094800  0.699600  0.561080  1.0  -0.5091
  O  O179  1  0.813500  0.455100  0.377440  1.0  -0.5801
  O  O180  1  0.971000  0.566300  0.334920  1.0  -0.7476
  O  O181  1  0.585700  0.508500  0.309190  1.0  -0.7282
  O  O182  1  0.322000  0.582400  0.330880  1.0  -0.7055
  O  O183  1  0.460400  0.247000  0.805150  1.0  -0.5916
  O  O184  1  0.589300  0.356800  0.757020  1.0  -0.8312
  O  O185  1  0.185600  0.361700  0.749430  1.0  -0.8462
  O  O186  1  0.969400  0.225600  0.731030  1.0  -0.6873
