# generated using pymatgen
data_Nd2Co3H16C40(NO3)8
_symmetry_space_group_name_H-M   'P 1'
_cell_length_a   7.63740000
_cell_length_b   10.46700000
_cell_length_c   30.49200000
_cell_angle_alpha   99.05000000
_cell_angle_beta   90.00000000
_cell_angle_gamma   90.00000000
_symmetry_Int_Tables_number   1
_chemical_formula_structural   Nd2Co3H16C40(NO3)8
_chemical_formula_sum   'Nd4 Co6 H32 C80 N16 O48'
_cell_volume   2407.20680807
_cell_formula_units_Z   2
loop_
 _symmetry_equiv_pos_site_id
 _symmetry_equiv_pos_as_xyz
  1  'x, y, z'
loop_
 _atom_site_type_symbol
 _atom_site_label
 _atom_site_symmetry_multiplicity
 _atom_site_fract_x
 _atom_site_fract_y
 _atom_site_fract_z
 _atom_site_occupancy
 _atom_site_charge
  Nd  Nd1  1  0.871820  0.551790  0.768100  1.0  2.3876
  Nd  Nd2  1  0.371820  0.448210  0.731900  1.0  2.3863
  Nd  Nd3  1  0.128180  0.448210  0.231900  1.0  2.3862
  Nd  Nd4  1  0.628180  0.551790  0.268100  1.0  2.3861
  Co  Co5  1  0.946190  0.713690  0.130110  1.0  0.9598
  Co  Co6  1  0.446190  0.286310  0.369890  1.0  0.9611
  Co  Co7  1  0.053810  0.286310  0.869890  1.0  0.9622
  Co  Co8  1  0.553810  0.713690  0.630110  1.0  0.9609
  Co  Co9  1  0.000000  0.000000  0.000000  1.0  0.9483
  Co  Co10  1  0.500000  0.000000  0.500000  1.0  0.9483
  H  H11  1  0.055200  0.756500  0.918300  1.0  0.1372
  H  H12  1  0.650900  0.799700  0.877800  1.0  0.1318
  H  H13  1  0.378100  0.127200  0.985800  1.0  0.1074
  H  H14  1  0.317700  0.077700  0.217000  1.0  0.1385
  H  H15  1  0.925400  0.025100  0.186100  1.0  0.1268
  H  H16  1  0.529400  0.689500  0.124200  1.0  0.1109
  H  H17  1  0.607000  0.035100  0.937700  1.0  0.3008
  H  H18  1  0.311900  0.834600  0.160100  1.0  0.3059
  H  H19  1  0.555200  0.243500  0.581700  1.0  0.1365
  H  H20  1  0.150900  0.200300  0.622200  1.0  0.1317
  H  H21  1  0.878100  0.872800  0.514200  1.0  0.1067
  H  H22  1  0.817700  0.922300  0.283000  1.0  0.1383
  H  H23  1  0.425400  0.974900  0.313900  1.0  0.1264
  H  H24  1  0.029400  0.310500  0.375800  1.0  0.1122
  H  H25  1  0.107000  0.964900  0.562300  1.0  0.301
  H  H26  1  0.811900  0.165400  0.339900  1.0  0.3069
  H  H27  1  0.944800  0.243500  0.081700  1.0  0.1378
  H  H28  1  0.349100  0.200300  0.122200  1.0  0.1323
  H  H29  1  0.621900  0.872800  0.014200  1.0  0.1067
  H  H30  1  0.682300  0.922300  0.783000  1.0  0.1387
  H  H31  1  0.074600  0.974900  0.813900  1.0  0.1269
  H  H32  1  0.470600  0.310500  0.875800  1.0  0.1121
  H  H33  1  0.393000  0.964900  0.062300  1.0  0.3022
  H  H34  1  0.688100  0.165400  0.839900  1.0  0.3077
  H  H35  1  0.444800  0.756500  0.418300  1.0  0.1383
  H  H36  1  0.849100  0.799700  0.377800  1.0  0.1324
  H  H37  1  0.121900  0.127200  0.485800  1.0  0.1075
  H  H38  1  0.182300  0.077700  0.717000  1.0  0.1389
  H  H39  1  0.574600  0.025100  0.686100  1.0  0.1272
  H  H40  1  0.970600  0.689500  0.624200  1.0  0.1109
  H  H41  1  0.893000  0.035100  0.437700  1.0  0.3025
  H  H42  1  0.188100  0.834600  0.660100  1.0  0.3071
  C  C43  1  0.970400  0.790100  0.044610  1.0  0.49
  C  C44  1  0.067700  0.895100  0.077210  1.0  0.5348
  C  C45  1  0.150700  0.555300  0.860950  1.0  0.7671
  C  C46  1  0.255200  0.673000  0.879090  1.0  -0.053
  C  C47  1  0.174500  0.764700  0.910420  1.0  -0.1491
  C  C48  1  0.275100  0.868700  0.929730  1.0  0.1822
  C  C49  1  0.449500  0.882200  0.916470  1.0  0.0896
  C  C50  1  0.531900  0.790500  0.885860  1.0  -0.1111
  C  C51  1  0.433200  0.684500  0.867440  1.0  -0.1405
  C  C52  1  0.513500  0.584900  0.833200  1.0  0.7631
  C  C53  1  0.371600  0.047500  0.966100  1.0  0.2381
  C  C54  1  0.498300  0.262200  0.266960  1.0  0.753
  C  C55  1  0.560100  0.157900  0.230420  1.0  -0.0534
  C  C56  1  0.439600  0.066800  0.211520  1.0  -0.1622
  C  C57  1  0.505200  0.958600  0.184120  1.0  0.1342
  C  C58  1  0.685200  0.939400  0.175570  1.0  0.1506
  C  C59  1  0.804200  0.034600  0.192800  1.0  -0.0898
  C  C60  1  0.741900  0.143200  0.219840  1.0  -0.1539
  C  C61  1  0.868700  0.248600  0.234880  1.0  0.7393
  C  C62  1  0.552100  0.771400  0.141540  1.0  0.2695
  C  C63  1  0.470400  0.209900  0.455390  1.0  0.4861
  C  C64  1  0.567700  0.104900  0.422790  1.0  0.5355
  C  C65  1  0.650700  0.444700  0.639050  1.0  0.7681
  C  C66  1  0.755200  0.327000  0.620910  1.0  -0.0535
  C  C67  1  0.674500  0.235300  0.589580  1.0  -0.1489
  C  C68  1  0.775100  0.131300  0.570270  1.0  0.182
  C  C69  1  0.949500  0.117800  0.583530  1.0  0.089
  C  C70  1  0.031900  0.209500  0.614140  1.0  -0.1107
  C  C71  1  0.933200  0.315500  0.632560  1.0  -0.1408
  C  C72  1  0.013500  0.415100  0.666800  1.0  0.763
  C  C73  1  0.871600  0.952500  0.533900  1.0  0.2387
  C  C74  1  0.998300  0.737800  0.233040  1.0  0.7538
  C  C75  1  0.060100  0.842100  0.269580  1.0  -0.0528
  C  C76  1  0.939600  0.933200  0.288480  1.0  -0.162
  C  C77  1  0.005200  0.041400  0.315880  1.0  0.1337
  C  C78  1  0.185200  0.060600  0.324430  1.0  0.1507
  C  C79  1  0.304200  0.965400  0.307200  1.0  -0.0901
  C  C80  1  0.241900  0.856800  0.280160  1.0  -0.1541
  C  C81  1  0.368700  0.751400  0.265120  1.0  0.7403
  C  C82  1  0.052100  0.228600  0.358460  1.0  0.2701
  C  C83  1  0.029600  0.209900  0.955390  1.0  0.4858
  C  C84  1  0.932300  0.104900  0.922790  1.0  0.5351
  C  C85  1  0.849300  0.444700  0.139050  1.0  0.7677
  C  C86  1  0.744800  0.327000  0.120910  1.0  -0.0535
  C  C87  1  0.825500  0.235300  0.089580  1.0  -0.1475
  C  C88  1  0.724900  0.131300  0.070270  1.0  0.182
  C  C89  1  0.550500  0.117800  0.083530  1.0  0.0898
  C  C90  1  0.468100  0.209500  0.114140  1.0  -0.1102
  C  C91  1  0.566800  0.315500  0.132560  1.0  -0.1408
  C  C92  1  0.486500  0.415100  0.166800  1.0  0.7521
  C  C93  1  0.628400  0.952500  0.033900  1.0  0.2387
  C  C94  1  0.501700  0.737800  0.733040  1.0  0.7541
  C  C95  1  0.439900  0.842100  0.769580  1.0  -0.0531
  C  C96  1  0.560400  0.933200  0.788480  1.0  -0.1622
  C  C97  1  0.494800  0.041400  0.815880  1.0  0.133
  C  C98  1  0.314800  0.060600  0.824430  1.0  0.1495
  C  C99  1  0.195800  0.965400  0.807200  1.0  -0.0896
  C  C100  1  0.258100  0.856800  0.780160  1.0  -0.1537
  C  C101  1  0.131300  0.751400  0.765120  1.0  0.7406
  C  C102  1  0.447900  0.228600  0.858460  1.0  0.2716
  C  C103  1  0.529600  0.790100  0.544610  1.0  0.4893
  C  C104  1  0.432300  0.895100  0.577210  1.0  0.5327
  C  C105  1  0.349300  0.555300  0.360950  1.0  0.7664
  C  C106  1  0.244800  0.673000  0.379090  1.0  -0.0532
  C  C107  1  0.325500  0.764700  0.410420  1.0  -0.148
  C  C108  1  0.224900  0.868700  0.429730  1.0  0.1825
  C  C109  1  0.050500  0.882200  0.416470  1.0  0.0906
  C  C110  1  0.968100  0.790500  0.385860  1.0  -0.1098
  C  C111  1  0.066800  0.684500  0.367440  1.0  -0.1403
  C  C112  1  0.986500  0.584900  0.333200  1.0  0.7523
  C  C113  1  0.128400  0.047500  0.466100  1.0  0.2377
  C  C114  1  0.001700  0.262200  0.766960  1.0  0.7532
  C  C115  1  0.939900  0.157900  0.730420  1.0  -0.0536
  C  C116  1  0.060400  0.066800  0.711520  1.0  -0.1624
  C  C117  1  0.994800  0.958600  0.684120  1.0  0.1335
  C  C118  1  0.814800  0.939400  0.675570  1.0  0.1492
  C  C119  1  0.695800  0.034600  0.692800  1.0  -0.0895
  C  C120  1  0.758100  0.143200  0.719840  1.0  -0.1537
  C  C121  1  0.631300  0.248600  0.734880  1.0  0.739
  C  C122  1  0.947900  0.771400  0.641540  1.0  0.2697
  N  N123  1  0.231400  0.973100  0.961740  1.0  -0.458
  N  N124  1  0.503900  0.998900  0.939770  1.0  -0.2683
  N  N125  1  0.710300  0.820100  0.148690  1.0  -0.4477
  N  N126  1  0.425200  0.850000  0.161440  1.0  -0.2775
  N  N127  1  0.731400  0.026900  0.538260  1.0  -0.4586
  N  N128  1  0.003900  0.001100  0.560230  1.0  -0.2686
  N  N129  1  0.210300  0.179900  0.351310  1.0  -0.4477
  N  N130  1  0.925200  0.150000  0.338560  1.0  -0.278
  N  N131  1  0.768600  0.026900  0.038260  1.0  -0.459
  N  N132  1  0.496100  0.001100  0.060230  1.0  -0.2688
  N  N133  1  0.289700  0.179900  0.851310  1.0  -0.4475
  N  N134  1  0.574800  0.150000  0.838560  1.0  -0.2796
  N  N135  1  0.268600  0.973100  0.461740  1.0  -0.4582
  N  N136  1  0.996100  0.998900  0.439770  1.0  -0.2685
  N  N137  1  0.789700  0.820100  0.648690  1.0  -0.4474
  N  N138  1  0.074800  0.850000  0.661440  1.0  -0.2799
  O  O139  1  0.128500  0.990300  0.061190  1.0  -0.5395
  O  O140  1  0.964200  0.803100  0.004330  1.0  -0.5236
  O  O141  1  0.080300  0.877800  0.116460  1.0  -0.538
  O  O142  1  0.905400  0.699600  0.061210  1.0  -0.5075
  O  O143  1  0.186200  0.455080  0.877160  1.0  -0.5855
  O  O144  1  0.029200  0.565600  0.834470  1.0  -0.7583
  O  O145  1  0.413800  0.508700  0.808870  1.0  -0.7488
  O  O146  1  0.678900  0.583000  0.830230  1.0  -0.7351
  O  O147  1  0.539300  0.247400  0.305090  1.0  -0.5962
  O  O148  1  0.410100  0.358330  0.257230  1.0  -0.8419
  O  O149  1  0.814600  0.362920  0.249520  1.0  -0.8666
  O  O150  1  0.031300  0.226820  0.230930  1.0  -0.6811
  O  O151  1  0.628500  0.009700  0.438810  1.0  -0.5389
  O  O152  1  0.464200  0.196900  0.495670  1.0  -0.5254
  O  O153  1  0.580300  0.122200  0.383540  1.0  -0.5389
  O  O154  1  0.405400  0.300400  0.438790  1.0  -0.5078
  O  O155  1  0.686200  0.544920  0.622840  1.0  -0.5856
  O  O156  1  0.529200  0.434400  0.665530  1.0  -0.7571
  O  O157  1  0.913800  0.491300  0.691130  1.0  -0.7475
  O  O158  1  0.178900  0.417000  0.669770  1.0  -0.7359
  O  O159  1  0.039300  0.752600  0.194910  1.0  -0.5965
  O  O160  1  0.910100  0.641670  0.242770  1.0  -0.8451
  O  O161  1  0.314600  0.637080  0.250480  1.0  -0.8663
  O  O162  1  0.531300  0.773180  0.269070  1.0  -0.68
  O  O163  1  0.871500  0.009700  0.938810  1.0  -0.5392
  O  O164  1  0.035800  0.196900  0.995670  1.0  -0.5263
  O  O165  1  0.919700  0.122200  0.883540  1.0  -0.5382
  O  O166  1  0.094600  0.300400  0.938790  1.0  -0.5079
  O  O167  1  0.813800  0.544920  0.122840  1.0  -0.5853
  O  O168  1  0.970800  0.434400  0.165530  1.0  -0.758
  O  O169  1  0.586200  0.491300  0.191130  1.0  -0.7477
  O  O170  1  0.321100  0.417000  0.169770  1.0  -0.7355
  O  O171  1  0.460700  0.752600  0.694910  1.0  -0.5959
  O  O172  1  0.589900  0.641670  0.742770  1.0  -0.8453
  O  O173  1  0.185400  0.637080  0.750480  1.0  -0.8669
  O  O174  1  0.968700  0.773180  0.769070  1.0  -0.6801
  O  O175  1  0.371500  0.990300  0.561190  1.0  -0.5392
  O  O176  1  0.535800  0.803100  0.504330  1.0  -0.5241
  O  O177  1  0.419700  0.877800  0.616460  1.0  -0.5371
  O  O178  1  0.594600  0.699600  0.561210  1.0  -0.5062
  O  O179  1  0.313800  0.455080  0.377160  1.0  -0.5852
  O  O180  1  0.470800  0.565600  0.334470  1.0  -0.7591
  O  O181  1  0.086200  0.508700  0.308870  1.0  -0.7488
  O  O182  1  0.821100  0.583000  0.330230  1.0  -0.7351
  O  O183  1  0.960700  0.247400  0.805090  1.0  -0.5953
  O  O184  1  0.089900  0.358330  0.757230  1.0  -0.8422
  O  O185  1  0.685400  0.362920  0.749520  1.0  -0.8671
  O  O186  1  0.468700  0.226820  0.730930  1.0  -0.6806
