# generated using pymatgen
data_Sm2Co3H16C40(NO3)8
_symmetry_space_group_name_H-M   'P 1'
_cell_length_a   7.59390000
_cell_length_b   10.44600000
_cell_length_c   30.51300000
_cell_angle_alpha   99.00000000
_cell_angle_beta   90.00000000
_cell_angle_gamma   90.00000000
_symmetry_Int_Tables_number   1
_chemical_formula_structural   Sm2Co3H16C40(NO3)8
_chemical_formula_sum   'Sm4 Co6 H32 C80 N16 O48'
_cell_volume   2390.67054902
_cell_formula_units_Z   2
loop_
 _symmetry_equiv_pos_site_id
 _symmetry_equiv_pos_as_xyz
  1  'x, y, z'
loop_
 _atom_site_type_symbol
 _atom_site_label
 _atom_site_symmetry_multiplicity
 _atom_site_fract_x
 _atom_site_fract_y
 _atom_site_fract_z
 _atom_site_occupancy
 _atom_site_charge
  Sm  Sm1  1  0.369440  0.550750  0.768050  1.0  2.384
  Sm  Sm2  1  0.869440  0.449250  0.731950  1.0  2.3808
  Sm  Sm3  1  0.630560  0.449250  0.231950  1.0  2.3834
  Sm  Sm4  1  0.130560  0.550750  0.268050  1.0  2.3815
  Co  Co5  1  0.550680  0.286110  0.869900  1.0  0.9577
  Co  Co6  1  0.050680  0.713890  0.630100  1.0  0.9567
  Co  Co7  1  0.449320  0.713890  0.130100  1.0  0.9563
  Co  Co8  1  0.949320  0.286110  0.369900  1.0  0.9571
  Co  Co9  1  0.500000  0.000000  0.000000  1.0  0.9483
  Co  Co10  1  0.000000  0.000000  0.500000  1.0  0.9483
  H  H11  1  0.550800  0.755400  0.917700  1.0  0.1383
  H  H12  1  0.150700  0.798000  0.877200  1.0  0.1305
  H  H13  1  0.878800  0.124800  0.985700  1.0  0.1099
  H  H14  1  0.181600  0.921800  0.782400  1.0  0.1356
  H  H15  1  0.570300  0.973200  0.814200  1.0  0.1272
  H  H16  1  0.968700  0.310200  0.875500  1.0  0.1119
  H  H17  1  0.108200  0.031100  0.937800  1.0  0.295
  H  H18  1  0.185200  0.166100  0.839200  1.0  0.2967
  H  H19  1  0.050800  0.244600  0.582300  1.0  0.1374
  H  H20  1  0.650700  0.202000  0.622800  1.0  0.1302
  H  H21  1  0.378800  0.875200  0.514300  1.0  0.1094
  H  H22  1  0.681600  0.078200  0.717600  1.0  0.1356
  H  H23  1  0.070300  0.026800  0.685800  1.0  0.1275
  H  H24  1  0.468700  0.689800  0.624500  1.0  0.1112
  H  H25  1  0.608200  0.968900  0.562200  1.0  0.2951
  H  H26  1  0.685200  0.833900  0.660800  1.0  0.2961
  H  H27  1  0.449200  0.244600  0.082300  1.0  0.1384
  H  H28  1  0.849300  0.202000  0.122800  1.0  0.131
  H  H29  1  0.121200  0.875200  0.014300  1.0  0.1093
  H  H30  1  0.818400  0.078200  0.217600  1.0  0.1352
  H  H31  1  0.429700  0.026800  0.185800  1.0  0.1272
  H  H32  1  0.031300  0.689800  0.124500  1.0  0.1112
  H  H33  1  0.891800  0.968900  0.062200  1.0  0.2959
  H  H34  1  0.814800  0.833900  0.160800  1.0  0.2951
  H  H35  1  0.949200  0.755400  0.417700  1.0  0.1391
  H  H36  1  0.349300  0.798000  0.377200  1.0  0.1312
  H  H37  1  0.621200  0.124800  0.485700  1.0  0.11
  H  H38  1  0.318400  0.921800  0.282400  1.0  0.1354
  H  H39  1  0.929700  0.973200  0.314200  1.0  0.1268
  H  H40  1  0.531300  0.310200  0.375500  1.0  0.1119
  H  H41  1  0.391800  0.031100  0.437800  1.0  0.2962
  H  H42  1  0.314800  0.166100  0.339200  1.0  0.2961
  C  C43  1  0.430600  0.105300  0.923010  1.0  0.5048
  C  C44  1  0.529100  0.210300  0.955060  1.0  0.4956
  C  C45  1  0.646500  0.554300  0.860050  1.0  0.7603
  C  C46  1  0.751700  0.672800  0.878010  1.0  -0.0524
  C  C47  1  0.670600  0.763500  0.909600  1.0  -0.1474
  C  C48  1  0.774300  0.867200  0.928940  1.0  0.1808
  C  C49  1  0.947900  0.880900  0.915820  1.0  0.1014
  C  C50  1  0.030900  0.789000  0.885170  1.0  -0.0944
  C  C51  1  0.931500  0.683800  0.866640  1.0  -0.1428
  C  C52  1  0.010500  0.585200  0.831860  1.0  0.763
  C  C53  1  0.871800  0.045200  0.965840  1.0  0.2313
  C  C54  1  0.999700  0.736400  0.732770  1.0  0.7561
  C  C55  1  0.937600  0.841000  0.769530  1.0  -0.0537
  C  C56  1  0.059000  0.932500  0.788110  1.0  -0.1629
  C  C57  1  0.992800  0.040900  0.815530  1.0  0.1364
  C  C58  1  0.811900  0.059500  0.824410  1.0  0.1453
  C  C59  1  0.692100  0.964000  0.807390  1.0  -0.092
  C  C60  1  0.755500  0.854700  0.780030  1.0  -0.1631
  C  C61  1  0.626900  0.749600  0.765070  1.0  0.743
  C  C62  1  0.945700  0.228200  0.858160  1.0  0.2627
  C  C63  1  0.930600  0.894700  0.576990  1.0  0.5035
  C  C64  1  0.029100  0.789700  0.544940  1.0  0.5083
  C  C65  1  0.146500  0.445700  0.639950  1.0  0.7619
  C  C66  1  0.251700  0.327200  0.621990  1.0  -0.0529
  C  C67  1  0.170600  0.236500  0.590400  1.0  -0.1475
  C  C68  1  0.274300  0.132800  0.571060  1.0  0.1806
  C  C69  1  0.447900  0.119100  0.584180  1.0  0.1002
  C  C70  1  0.530900  0.211000  0.614830  1.0  -0.0932
  C  C71  1  0.431500  0.316200  0.633360  1.0  -0.1431
  C  C72  1  0.510500  0.414800  0.668140  1.0  0.7628
  C  C73  1  0.371800  0.954800  0.534160  1.0  0.2311
  C  C74  1  0.499700  0.263600  0.767230  1.0  0.7554
  C  C75  1  0.437600  0.159000  0.730470  1.0  -0.0544
  C  C76  1  0.559000  0.067500  0.711890  1.0  -0.1631
  C  C77  1  0.492800  0.959100  0.684470  1.0  0.1364
  C  C78  1  0.311900  0.940500  0.675590  1.0  0.145
  C  C79  1  0.192100  0.036000  0.692610  1.0  -0.0917
  C  C80  1  0.255500  0.145300  0.719970  1.0  -0.1629
  C  C81  1  0.126900  0.250400  0.734930  1.0  0.7412
  C  C82  1  0.445700  0.771800  0.641840  1.0  0.2606
  C  C83  1  0.569400  0.894700  0.076990  1.0  0.5052
  C  C84  1  0.470900  0.789700  0.044940  1.0  0.5093
  C  C85  1  0.353500  0.445700  0.139950  1.0  0.761
  C  C86  1  0.248300  0.327200  0.121990  1.0  -0.0533
  C  C87  1  0.329400  0.236500  0.090400  1.0  -0.1466
  C  C88  1  0.225700  0.132800  0.071060  1.0  0.18
  C  C89  1  0.052100  0.119100  0.084180  1.0  0.1017
  C  C90  1  0.969100  0.211000  0.114830  1.0  -0.0943
  C  C91  1  0.068500  0.316200  0.133360  1.0  -0.1425
  C  C92  1  0.989500  0.414800  0.168140  1.0  0.7632
  C  C93  1  0.128200  0.954800  0.034160  1.0  0.2312
  C  C94  1  0.000300  0.263600  0.267230  1.0  0.7552
  C  C95  1  0.062400  0.159000  0.230470  1.0  -0.0542
  C  C96  1  0.941000  0.067500  0.211890  1.0  -0.1637
  C  C97  1  0.007200  0.959100  0.184470  1.0  0.1374
  C  C98  1  0.188100  0.940500  0.175590  1.0  0.1465
  C  C99  1  0.307900  0.036000  0.192610  1.0  -0.0922
  C  C100  1  0.244500  0.145300  0.219970  1.0  -0.1627
  C  C101  1  0.373100  0.250400  0.234930  1.0  0.7413
  C  C102  1  0.054300  0.771800  0.141840  1.0  0.2617
  C  C103  1  0.069400  0.105300  0.423010  1.0  0.506
  C  C104  1  0.970900  0.210300  0.455060  1.0  0.4961
  C  C105  1  0.853500  0.554300  0.360050  1.0  0.7592
  C  C106  1  0.748300  0.672800  0.378010  1.0  -0.0529
  C  C107  1  0.829400  0.763500  0.409600  1.0  -0.147
  C  C108  1  0.725700  0.867200  0.428940  1.0  0.1804
  C  C109  1  0.552100  0.880900  0.415820  1.0  0.1031
  C  C110  1  0.469100  0.789000  0.385170  1.0  -0.0939
  C  C111  1  0.568500  0.683800  0.366640  1.0  -0.1422
  C  C112  1  0.489500  0.585200  0.331860  1.0  0.7631
  C  C113  1  0.628200  0.045200  0.465840  1.0  0.2311
  C  C114  1  0.500300  0.736400  0.232770  1.0  0.7558
  C  C115  1  0.562400  0.841000  0.269530  1.0  -0.0534
  C  C116  1  0.441000  0.932500  0.288110  1.0  -0.1636
  C  C117  1  0.507200  0.040900  0.315530  1.0  0.1373
  C  C118  1  0.688100  0.059500  0.324410  1.0  0.1466
  C  C119  1  0.807900  0.964000  0.307390  1.0  -0.0925
  C  C120  1  0.744500  0.854700  0.280030  1.0  -0.1632
  C  C121  1  0.873100  0.749600  0.265070  1.0  0.7423
  C  C122  1  0.554300  0.228200  0.358160  1.0  0.2624
  N  N123  1  0.731600  0.971300  0.961210  1.0  -0.4483
  N  N124  1  0.003700  0.995900  0.939530  1.0  -0.2567
  N  N125  1  0.787600  0.179000  0.851150  1.0  -0.4377
  N  N126  1  0.071300  0.150100  0.838120  1.0  -0.2762
  N  N127  1  0.231600  0.028700  0.538790  1.0  -0.4489
  N  N128  1  0.503700  0.004100  0.560470  1.0  -0.2573
  N  N129  1  0.287600  0.821000  0.648850  1.0  -0.4372
  N  N130  1  0.571300  0.849900  0.661880  1.0  -0.2768
  N  N131  1  0.268400  0.028700  0.038790  1.0  -0.4505
  N  N132  1  0.996300  0.004100  0.060470  1.0  -0.2576
  N  N133  1  0.212400  0.821000  0.148850  1.0  -0.4369
  N  N134  1  0.928700  0.849900  0.161880  1.0  -0.2755
  N  N135  1  0.768400  0.971300  0.461210  1.0  -0.45
  N  N136  1  0.496300  0.995900  0.439530  1.0  -0.2567
  N  N137  1  0.712400  0.179000  0.351150  1.0  -0.4369
  N  N138  1  0.428700  0.150100  0.338120  1.0  -0.2758
  O  O139  1  0.370000  0.009400  0.939080  1.0  -0.5443
  O  O140  1  0.536100  0.196500  0.995400  1.0  -0.5355
  O  O141  1  0.416500  0.121800  0.883780  1.0  -0.5389
  O  O142  1  0.593200  0.300400  0.938670  1.0  -0.5057
  O  O143  1  0.682700  0.454600  0.876400  1.0  -0.5852
  O  O144  1  0.524000  0.565400  0.833700  1.0  -0.762
  O  O145  1  0.175700  0.582100  0.828680  1.0  -0.7325
  O  O146  1  0.908900  0.508900  0.807810  1.0  -0.7431
  O  O147  1  0.958100  0.752900  0.694890  1.0  -0.6007
  O  O148  1  0.087600  0.640600  0.741980  1.0  -0.8214
  O  O149  1  0.683300  0.635600  0.750360  1.0  -0.8679
  O  O150  1  0.464200  0.770200  0.769360  1.0  -0.6796
  O  O151  1  0.870000  0.990600  0.560920  1.0  -0.5436
  O  O152  1  0.036100  0.803500  0.504600  1.0  -0.5357
  O  O153  1  0.916500  0.878200  0.616220  1.0  -0.5399
  O  O154  1  0.093200  0.699600  0.561330  1.0  -0.5025
  O  O155  1  0.182700  0.545400  0.623600  1.0  -0.5853
  O  O156  1  0.024000  0.434600  0.666300  1.0  -0.7613
  O  O157  1  0.675700  0.417900  0.671320  1.0  -0.733
  O  O158  1  0.408900  0.491100  0.692190  1.0  -0.742
  O  O159  1  0.458100  0.247100  0.805110  1.0  -0.6008
  O  O160  1  0.587600  0.359400  0.758020  1.0  -0.8171
  O  O161  1  0.183300  0.364400  0.749640  1.0  -0.8682
  O  O162  1  0.964200  0.229800  0.730640  1.0  -0.6797
  O  O163  1  0.630000  0.990600  0.060920  1.0  -0.5438
  O  O164  1  0.463900  0.803500  0.004600  1.0  -0.5356
  O  O165  1  0.583500  0.878200  0.116220  1.0  -0.5387
  O  O166  1  0.406800  0.699600  0.061330  1.0  -0.5035
  O  O167  1  0.317300  0.545400  0.123600  1.0  -0.585
  O  O168  1  0.476000  0.434600  0.166300  1.0  -0.7627
  O  O169  1  0.824300  0.417900  0.171320  1.0  -0.7331
  O  O170  1  0.091100  0.491100  0.192190  1.0  -0.7423
  O  O171  1  0.041900  0.247100  0.305110  1.0  -0.6012
  O  O172  1  0.912400  0.359400  0.258020  1.0  -0.8191
  O  O173  1  0.316700  0.364400  0.249640  1.0  -0.8677
  O  O174  1  0.535800  0.229800  0.230640  1.0  -0.6797
  O  O175  1  0.130000  0.009400  0.439080  1.0  -0.5446
  O  O176  1  0.963900  0.196500  0.495400  1.0  -0.5353
  O  O177  1  0.083500  0.121800  0.383780  1.0  -0.5416
  O  O178  1  0.906800  0.300400  0.438670  1.0  -0.5055
  O  O179  1  0.817300  0.454600  0.376400  1.0  -0.5848
  O  O180  1  0.976000  0.565400  0.333700  1.0  -0.7634
  O  O181  1  0.324300  0.582100  0.328680  1.0  -0.7328
  O  O182  1  0.591100  0.508900  0.307810  1.0  -0.7432
  O  O183  1  0.541900  0.752900  0.194890  1.0  -0.6012
  O  O184  1  0.412400  0.640600  0.241980  1.0  -0.8236
  O  O185  1  0.816700  0.635600  0.250360  1.0  -0.8671
  O  O186  1  0.035800  0.770200  0.269360  1.0  -0.6797
