# generated using pymatgen
data_Ca6H56(C7O3)7
_symmetry_space_group_name_H-M   'P 1'
_cell_length_a   15.85460000
_cell_length_b   22.06110000
_cell_length_c   22.06110000
_cell_angle_alpha   82.58120000
_cell_angle_beta   68.94070000
_cell_angle_gamma   68.94070000
_symmetry_Int_Tables_number   1
_chemical_formula_structural   Ca6H56(C7O3)7
_chemical_formula_sum   'Ca24 H224 C196 O84'
_cell_volume   6719.97216758
_cell_formula_units_Z   4
loop_
 _symmetry_equiv_pos_site_id
 _symmetry_equiv_pos_as_xyz
  1  'x, y, z'
loop_
 _atom_site_type_symbol
 _atom_site_label
 _atom_site_symmetry_multiplicity
 _atom_site_fract_x
 _atom_site_fract_y
 _atom_site_fract_z
 _atom_site_occupancy
 _atom_site_charge
  Ca  Ca1  1  0.852560  0.072140  0.072140  1.0  1.5086
  Ca  Ca2  1  0.093420  0.036280  0.036280  1.0  1.5972
  Ca  Ca3  1  0.496840  0.427860  0.427860  1.0  1.508
  Ca  Ca4  1  0.665980  0.463720  0.463720  1.0  1.5964
  Ca  Ca5  1  0.424700  0.927860  0.572140  1.0  1.5103
  Ca  Ca6  1  0.629700  0.963720  0.536280  1.0  1.6021
  Ca  Ca7  1  0.424700  0.572140  0.927860  1.0  1.5111
  Ca  Ca8  1  0.629700  0.536280  0.963720  1.0  1.6023
  Ca  Ca9  1  0.503160  0.572140  0.572140  1.0  1.509
  Ca  Ca10  1  0.334020  0.536280  0.536280  1.0  1.5949
  Ca  Ca11  1  0.147440  0.927860  0.927860  1.0  1.5081
  Ca  Ca12  1  0.906580  0.963720  0.963720  1.0  1.597
  Ca  Ca13  1  0.575300  0.072140  0.427860  1.0  1.5113
  Ca  Ca14  1  0.370300  0.036280  0.463720  1.0  1.6013
  Ca  Ca15  1  0.575300  0.427860  0.072140  1.0  1.511
  Ca  Ca16  1  0.370300  0.463720  0.036280  1.0  1.6012
  Ca  Ca17  1  0.686300  0.127400  0.250000  1.0  1.4958
  Ca  Ca18  1  0.563700  0.372600  0.250000  1.0  1.4965
  Ca  Ca19  1  0.436300  0.750000  0.627400  1.0  1.4971
  Ca  Ca20  1  0.313700  0.750000  0.872600  1.0  1.4966
  Ca  Ca21  1  0.313700  0.872600  0.750000  1.0  1.4962
  Ca  Ca22  1  0.436300  0.627400  0.750000  1.0  1.4955
  Ca  Ca23  1  0.563700  0.250000  0.372600  1.0  1.4964
  Ca  Ca24  1  0.686300  0.250000  0.127400  1.0  1.4969
  H  H25  1  0.802000  0.985900  0.298700  1.0  0.0922
  H  H26  1  0.830560  0.038520  0.320560  1.0  0.0936
  H  H27  1  0.982520  0.933850  0.405110  1.0  0.1027
  H  H28  1  0.941270  0.006930  0.385730  1.0  0.0983
  H  H29  1  0.101580  0.960000  0.316000  1.0  0.0775
  H  H30  1  0.998500  0.042130  0.269270  1.0  0.0905
  H  H31  1  0.075300  0.991220  0.215780  1.0  0.0986
  H  H32  1  0.030020  0.905080  0.180880  1.0  0.0976
  H  H33  1  0.924970  0.903230  0.213030  1.0  0.1043
  H  H34  1  0.868000  0.867800  0.329400  1.0  0.0832
  H  H35  1  0.937200  0.847960  0.370240  1.0  0.0904
  H  H36  1  0.140350  0.874150  0.246350  1.0  0.0693
  H  H37  1  0.105100  0.852010  0.318990  1.0  0.0776
  H  H38  1  0.028450  0.821950  0.259950  1.0  0.0813
  H  H39  1  0.586600  0.514100  0.201300  1.0  0.0882
  H  H40  1  0.689640  0.461480  0.179440  1.0  0.097
  H  H41  1  0.821480  0.566150  0.094890  1.0  0.103
  H  H42  1  0.833930  0.493070  0.114270  1.0  0.1014
  H  H43  1  0.877580  0.540000  0.184000  1.0  0.0803
  H  H44  1  0.809900  0.457870  0.230730  1.0  0.0912
  H  H45  1  0.782300  0.508780  0.284220  1.0  0.0998
  H  H46  1  0.615980  0.594920  0.319120  1.0  0.0983
  H  H47  1  0.541230  0.596770  0.286970  1.0  0.1003
  H  H48  1  0.565200  0.632200  0.170600  1.0  0.0846
  H  H49  1  0.655400  0.652040  0.129760  1.0  0.0872
  H  H50  1  0.760850  0.625850  0.253650  1.0  0.0712
  H  H51  1  0.776100  0.647990  0.181010  1.0  0.0772
  H  H52  1  0.610350  0.678050  0.240050  1.0  0.0797
  H  H53  1  0.600700  0.701300  0.485900  1.0  0.0922
  H  H54  1  0.651120  0.679440  0.538520  1.0  0.0957
  H  H55  1  0.887630  0.594890  0.433850  1.0  0.1013
  H  H56  1  0.827000  0.614270  0.506930  1.0  0.1
  H  H57  1  0.917580  0.684000  0.460000  1.0  0.0718
  H  H58  1  0.767770  0.730730  0.542130  1.0  0.0875
  H  H59  1  0.791080  0.784220  0.491220  1.0  0.0971
  H  H60  1  0.710900  0.819120  0.405080  1.0  0.0946
  H  H61  1  0.638000  0.786970  0.403230  1.0  0.099
  H  H62  1  0.697400  0.670600  0.367800  1.0  0.0843
  H  H63  1  0.807440  0.629760  0.347960  1.0  0.0865
  H  H64  1  0.886700  0.753650  0.374150  1.0  0.0707
  H  H65  1  0.924090  0.681010  0.352010  1.0  0.0764
  H  H66  1  0.788400  0.740050  0.321950  1.0  0.0804
  H  H67  1  0.287900  0.798700  0.014100  1.0  0.0904
  H  H68  1  0.369080  0.820560  0.961480  1.0  0.0959
  H  H69  1  0.416370  0.905110  0.066150  1.0  0.0995
  H  H70  1  0.448200  0.885730  0.993070  1.0  0.0989
  H  H71  1  0.561580  0.816000  0.040000  1.0  0.0767
  H  H72  1  0.540630  0.769270  0.957870  1.0  0.0919
  H  H73  1  0.566520  0.715780  0.008780  1.0  0.0986
  H  H74  1  0.435100  0.680880  0.094920  1.0  0.0952
  H  H75  1  0.328200  0.713030  0.096770  1.0  0.0994
  H  H76  1  0.235800  0.829400  0.132200  1.0  0.0852
  H  H77  1  0.285160  0.870240  0.152040  1.0  0.086
  H  H78  1  0.514500  0.746350  0.125850  1.0  0.0692
  H  H79  1  0.457110  0.818990  0.147990  1.0  0.0798
  H  H80  1  0.350400  0.759950  0.178050  1.0  0.0781
  H  H81  1  0.413400  0.798700  0.485900  1.0  0.0913
  H  H82  1  0.310360  0.820560  0.538520  1.0  0.097
  H  H83  1  0.178520  0.905110  0.433850  1.0  0.1026
  H  H84  1  0.166070  0.885730  0.506930  1.0  0.1017
  H  H85  1  0.122420  0.816000  0.460000  1.0  0.0784
  H  H86  1  0.190100  0.769270  0.542130  1.0  0.0917
  H  H87  1  0.217700  0.715780  0.491220  1.0  0.0992
  H  H88  1  0.384020  0.680880  0.405080  1.0  0.095
  H  H89  1  0.458770  0.713030  0.403230  1.0  0.0962
  H  H90  1  0.434800  0.829400  0.367800  1.0  0.0842
  H  H91  1  0.344600  0.870240  0.347960  1.0  0.0868
  H  H92  1  0.239150  0.746350  0.374150  1.0  0.0702
  H  H93  1  0.223900  0.818990  0.352010  1.0  0.0799
  H  H94  1  0.389650  0.759950  0.321950  1.0  0.0785
  H  H95  1  0.198000  0.701300  0.014100  1.0  0.093
  H  H96  1  0.169440  0.679440  0.961480  1.0  0.0941
  H  H97  1  0.017480  0.594890  0.066150  1.0  0.1006
  H  H98  1  0.058730  0.614270  0.993070  1.0  0.0985
  H  H99  1  0.898420  0.684000  0.040000  1.0  0.0762
  H  H100  1  0.001500  0.730730  0.957870  1.0  0.0889
  H  H101  1  0.924700  0.784220  0.008780  1.0  0.099
  H  H102  1  0.969980  0.819120  0.094920  1.0  0.0949
  H  H103  1  0.075030  0.786970  0.096770  1.0  0.0985
  H  H104  1  0.132000  0.670600  0.132200  1.0  0.0852
  H  H105  1  0.062800  0.629760  0.152040  1.0  0.0876
  H  H106  1  0.859650  0.753650  0.125850  1.0  0.0711
  H  H107  1  0.894900  0.681010  0.147990  1.0  0.0781
  H  H108  1  0.971550  0.740050  0.178050  1.0  0.0791
  H  H109  1  0.712100  0.985900  0.201300  1.0  0.0926
  H  H110  1  0.630920  0.038520  0.179440  1.0  0.0949
  H  H111  1  0.583630  0.933850  0.094890  1.0  0.1006
  H  H112  1  0.551800  0.006930  0.114270  1.0  0.097
  H  H113  1  0.438420  0.960000  0.184000  1.0  0.0775
  H  H114  1  0.459370  0.042130  0.230730  1.0  0.0911
  H  H115  1  0.433480  0.991220  0.284220  1.0  0.1008
  H  H116  1  0.564900  0.905080  0.319120  1.0  0.0982
  H  H117  1  0.671800  0.903230  0.286970  1.0  0.1051
  H  H118  1  0.764200  0.867800  0.170600  1.0  0.0826
  H  H119  1  0.714840  0.847960  0.129760  1.0  0.0887
  H  H120  1  0.485500  0.874150  0.253650  1.0  0.0697
  H  H121  1  0.542890  0.852010  0.181010  1.0  0.0774
  H  H122  1  0.649600  0.821950  0.240050  1.0  0.0815
  H  H123  1  0.399300  0.514100  0.298700  1.0  0.0901
  H  H124  1  0.348880  0.461480  0.320560  1.0  0.0967
  H  H125  1  0.112370  0.566150  0.405110  1.0  0.1038
  H  H126  1  0.173000  0.493070  0.385730  1.0  0.0984
  H  H127  1  0.082420  0.540000  0.316000  1.0  0.078
  H  H128  1  0.232230  0.457870  0.269270  1.0  0.0872
  H  H129  1  0.208920  0.508780  0.215780  1.0  0.0999
  H  H130  1  0.289100  0.594920  0.180880  1.0  0.099
  H  H131  1  0.362000  0.596770  0.213030  1.0  0.0974
  H  H132  1  0.302600  0.632200  0.329400  1.0  0.083
  H  H133  1  0.192560  0.652040  0.370240  1.0  0.0867
  H  H134  1  0.113300  0.625850  0.246350  1.0  0.0732
  H  H135  1  0.075910  0.647990  0.318990  1.0  0.0777
  H  H136  1  0.211600  0.678050  0.259950  1.0  0.0797
  H  H137  1  0.198000  0.014100  0.701300  1.0  0.0927
  H  H138  1  0.169440  0.961480  0.679440  1.0  0.0937
  H  H139  1  0.017480  0.066150  0.594890  1.0  0.1001
  H  H140  1  0.058730  0.993070  0.614270  1.0  0.098
  H  H141  1  0.898420  0.040000  0.684000  1.0  0.0788
  H  H142  1  0.001500  0.957870  0.730730  1.0  0.0875
  H  H143  1  0.924700  0.008780  0.784220  1.0  0.1005
  H  H144  1  0.969980  0.094920  0.819120  1.0  0.0984
  H  H145  1  0.075030  0.096770  0.786970  1.0  0.1043
  H  H146  1  0.132000  0.132200  0.670600  1.0  0.0826
  H  H147  1  0.062800  0.152040  0.629760  1.0  0.0893
  H  H148  1  0.859650  0.125850  0.753650  1.0  0.0698
  H  H149  1  0.894900  0.147990  0.681010  1.0  0.0779
  H  H150  1  0.971550  0.178050  0.740050  1.0  0.0807
  H  H151  1  0.413400  0.485900  0.798700  1.0  0.0904
  H  H152  1  0.310360  0.538520  0.820560  1.0  0.0963
  H  H153  1  0.178520  0.433850  0.905110  1.0  0.1046
  H  H154  1  0.166070  0.506930  0.885730  1.0  0.1007
  H  H155  1  0.122420  0.460000  0.816000  1.0  0.0791
  H  H156  1  0.190100  0.542130  0.769270  1.0  0.0922
  H  H157  1  0.217700  0.491220  0.715780  1.0  0.0987
  H  H158  1  0.384020  0.405080  0.680880  1.0  0.0991
  H  H159  1  0.458770  0.403230  0.713030  1.0  0.0976
  H  H160  1  0.434800  0.367800  0.829400  1.0  0.0831
  H  H161  1  0.344600  0.347960  0.870240  1.0  0.088
  H  H162  1  0.239150  0.374150  0.746350  1.0  0.0734
  H  H163  1  0.223900  0.352010  0.818990  1.0  0.0779
  H  H164  1  0.389650  0.321950  0.759950  1.0  0.0799
  H  H165  1  0.399300  0.298700  0.514100  1.0  0.0929
  H  H166  1  0.348880  0.320560  0.461480  1.0  0.0951
  H  H167  1  0.112370  0.405110  0.566150  1.0  0.0988
  H  H168  1  0.173000  0.385730  0.493070  1.0  0.0993
  H  H169  1  0.082420  0.316000  0.540000  1.0  0.077
  H  H170  1  0.232230  0.269270  0.457870  1.0  0.088
  H  H171  1  0.208920  0.215780  0.508780  1.0  0.0986
  H  H172  1  0.289100  0.180880  0.594920  1.0  0.0955
  H  H173  1  0.362000  0.213030  0.596770  1.0  0.099
  H  H174  1  0.302600  0.329400  0.632200  1.0  0.085
  H  H175  1  0.192560  0.370240  0.652040  1.0  0.0864
  H  H176  1  0.113300  0.246350  0.625850  1.0  0.0711
  H  H177  1  0.075910  0.318990  0.647990  1.0  0.0779
  H  H178  1  0.211600  0.259950  0.678050  1.0  0.0792
  H  H179  1  0.712100  0.201300  0.985900  1.0  0.0914
  H  H180  1  0.630920  0.179440  0.038520  1.0  0.0963
  H  H181  1  0.583630  0.094890  0.933850  1.0  0.1018
  H  H182  1  0.551800  0.114270  0.006930  1.0  0.0983
  H  H183  1  0.438420  0.184000  0.960000  1.0  0.0781
  H  H184  1  0.459370  0.230730  0.042130  1.0  0.0908
  H  H185  1  0.433480  0.284220  0.991220  1.0  0.0987
  H  H186  1  0.564900  0.319120  0.905080  1.0  0.0944
  H  H187  1  0.671800  0.286970  0.903230  1.0  0.0963
  H  H188  1  0.764200  0.170600  0.867800  1.0  0.0841
  H  H189  1  0.714840  0.129760  0.847960  1.0  0.0863
  H  H190  1  0.485500  0.253650  0.874150  1.0  0.0701
  H  H191  1  0.542890  0.181010  0.852010  1.0  0.0793
  H  H192  1  0.649600  0.240050  0.821950  1.0  0.079
  H  H193  1  0.586600  0.201300  0.514100  1.0  0.0904
  H  H194  1  0.689640  0.179440  0.461480  1.0  0.0972
  H  H195  1  0.821480  0.094890  0.566150  1.0  0.1047
  H  H196  1  0.833930  0.114270  0.493070  1.0  0.1021
  H  H197  1  0.877580  0.184000  0.540000  1.0  0.0799
  H  H198  1  0.809900  0.230730  0.457870  1.0  0.0933
  H  H199  1  0.782300  0.284220  0.508780  1.0  0.0966
  H  H200  1  0.615980  0.319120  0.594920  1.0  0.094
  H  H201  1  0.541230  0.286970  0.596770  1.0  0.0995
  H  H202  1  0.565200  0.170600  0.632200  1.0  0.0854
  H  H203  1  0.655400  0.129760  0.652040  1.0  0.0875
  H  H204  1  0.760850  0.253650  0.625850  1.0  0.0685
  H  H205  1  0.776100  0.181010  0.647990  1.0  0.0804
  H  H206  1  0.610350  0.240050  0.678050  1.0  0.0782
  H  H207  1  0.802000  0.298700  0.985900  1.0  0.0921
  H  H208  1  0.830560  0.320560  0.038520  1.0  0.094
  H  H209  1  0.982520  0.405110  0.933850  1.0  0.0999
  H  H210  1  0.941270  0.385730  0.006930  1.0  0.1007
  H  H211  1  0.101580  0.316000  0.960000  1.0  0.074
  H  H212  1  0.998500  0.269270  0.042130  1.0  0.0893
  H  H213  1  0.075300  0.215780  0.991220  1.0  0.0996
  H  H214  1  0.030020  0.180880  0.905080  1.0  0.0954
  H  H215  1  0.924970  0.213030  0.903230  1.0  0.0988
  H  H216  1  0.868000  0.329400  0.867800  1.0  0.0842
  H  H217  1  0.937200  0.370240  0.847960  1.0  0.0864
  H  H218  1  0.140350  0.246350  0.874150  1.0  0.0705
  H  H219  1  0.105100  0.318990  0.852010  1.0  0.0768
  H  H220  1  0.028450  0.259950  0.821950  1.0  0.08
  H  H221  1  0.287900  0.014100  0.798700  1.0  0.0915
  H  H222  1  0.369080  0.961480  0.820560  1.0  0.0963
  H  H223  1  0.416370  0.066150  0.905110  1.0  0.1046
  H  H224  1  0.448200  0.993070  0.885730  1.0  0.099
  H  H225  1  0.561580  0.040000  0.816000  1.0  0.075
  H  H226  1  0.540630  0.957870  0.769270  1.0  0.0891
  H  H227  1  0.566520  0.008780  0.715780  1.0  0.1006
  H  H228  1  0.435100  0.094920  0.680880  1.0  0.0976
  H  H229  1  0.328200  0.096770  0.713030  1.0  0.1044
  H  H230  1  0.235800  0.132200  0.829400  1.0  0.0835
  H  H231  1  0.285160  0.152040  0.870240  1.0  0.0887
  H  H232  1  0.514500  0.125850  0.746350  1.0  0.0693
  H  H233  1  0.457110  0.147990  0.818990  1.0  0.077
  H  H234  1  0.350400  0.178050  0.759950  1.0  0.081
  H  H235  1  0.600700  0.485900  0.701300  1.0  0.0889
  H  H236  1  0.651120  0.538520  0.679440  1.0  0.0952
  H  H237  1  0.887630  0.433850  0.594890  1.0  0.101
  H  H238  1  0.827000  0.506930  0.614270  1.0  0.097
  H  H239  1  0.917580  0.460000  0.684000  1.0  0.0763
  H  H240  1  0.767770  0.542130  0.730730  1.0  0.0894
  H  H241  1  0.791080  0.491220  0.784220  1.0  0.0998
  H  H242  1  0.710900  0.405080  0.819120  1.0  0.0983
  H  H243  1  0.638000  0.403230  0.786970  1.0  0.1003
  H  H244  1  0.697400  0.367800  0.670600  1.0  0.0843
  H  H245  1  0.807440  0.347960  0.629760  1.0  0.0866
  H  H246  1  0.886700  0.374150  0.753650  1.0  0.0708
  H  H247  1  0.924090  0.352010  0.681010  1.0  0.0767
  H  H248  1  0.788400  0.321950  0.740050  1.0  0.0803
  C  C249  1  0.939640  0.983800  0.242920  1.0  0.0535
  C  C250  1  0.853690  0.993890  0.306330  1.0  -0.2404
  C  C251  1  0.882010  0.948120  0.359460  1.0  0.0824
  C  C252  1  0.963620  0.962340  0.371420  1.0  -0.2326
  C  C253  1  0.049830  0.951340  0.308240  1.0  0.0597
  C  C254  1  0.020520  0.997500  0.255460  1.0  -0.2486
  C  C255  1  0.975550  0.912310  0.220990  1.0  -0.2512
  C  C256  1  0.918660  0.877200  0.336880  1.0  -0.2426
  C  C257  1  0.085270  0.881240  0.286020  1.0  -0.2158
  C  C258  1  0.005070  0.867120  0.274140  1.0  0.0547
  C  C259  1  0.909100  0.026640  0.189960  1.0  0.3861
  C  C260  1  0.796200  0.958680  0.421320  1.0  0.6213
  C  C261  1  0.666360  0.516200  0.257080  1.0  0.0558
  C  C262  1  0.653910  0.506110  0.193670  1.0  -0.2418
  C  C263  1  0.689590  0.551880  0.140540  1.0  0.0814
  C  C264  1  0.797380  0.537660  0.128580  1.0  -0.24
  C  C265  1  0.809410  0.548660  0.191760  1.0  0.0575
  C  C266  1  0.773480  0.502500  0.244540  1.0  -0.2476
  C  C267  1  0.608850  0.587690  0.279010  1.0  -0.2602
  C  C268  1  0.632740  0.622800  0.163120  1.0  -0.2408
  C  C269  1  0.752530  0.618760  0.213980  1.0  -0.2195
  C  C270  1  0.646330  0.632880  0.225860  1.0  0.0521
  C  C271  1  0.625700  0.473360  0.310040  1.0  0.3858
  C  C272  1  0.676200  0.541320  0.078680  1.0  0.6313
  C  C273  1  0.682560  0.757080  0.483800  1.0  0.0594
  C  C274  1  0.660020  0.693670  0.493890  1.0  -0.2449
  C  C275  1  0.741470  0.640540  0.448120  1.0  0.079
  C  C276  1  0.835040  0.628580  0.462340  1.0  -0.2384
  C  C277  1  0.858070  0.691760  0.451340  1.0  0.0599
  C  C278  1  0.775980  0.744540  0.497500  1.0  -0.2395
  C  C279  1  0.696540  0.779010  0.412310  1.0  -0.2564
  C  C280  1  0.755540  0.663120  0.377200  1.0  -0.2385
  C  C281  1  0.871290  0.713980  0.381240  1.0  -0.2165
  C  C282  1  0.779210  0.725860  0.367120  1.0  0.0564
  C  C283  1  0.599060  0.810040  0.526640  1.0  0.3859
  C  C284  1  0.717520  0.578680  0.458680  1.0  0.6182
  C  C285  1  0.423440  0.742920  0.016200  1.0  0.0557
  C  C286  1  0.347580  0.806330  0.006110  1.0  -0.2375
  C  C287  1  0.330130  0.859460  0.051880  1.0  0.0778
  C  C288  1  0.425960  0.871420  0.037660  1.0  -0.2406
  C  C289  1  0.501170  0.808240  0.048660  1.0  0.0609
  C  C290  1  0.518020  0.755460  0.002500  1.0  -0.2492
  C  C291  1  0.387860  0.720990  0.087690  1.0  -0.2514
  C  C292  1  0.295860  0.836880  0.122800  1.0  -0.2437
  C  C293  1  0.466510  0.786020  0.118760  1.0  -0.2175
  C  C294  1  0.372190  0.774140  0.132880  1.0  0.0532
  C  C295  1  0.435740  0.689960  0.973360  1.0  0.3865
  C  C296  1  0.254880  0.921320  0.041320  1.0  0.6174
  C  C297  1  0.333640  0.742920  0.483800  1.0  0.0573
  C  C298  1  0.346090  0.806330  0.493890  1.0  -0.2358
  C  C299  1  0.310410  0.859460  0.448120  1.0  0.0791
  C  C300  1  0.202620  0.871420  0.462340  1.0  -0.2426
  C  C301  1  0.190590  0.808240  0.451340  1.0  0.0605
  C  C302  1  0.226520  0.755460  0.497500  1.0  -0.2504
  C  C303  1  0.391150  0.720990  0.412310  1.0  -0.2508
  C  C304  1  0.367260  0.836880  0.377200  1.0  -0.2424
  C  C305  1  0.247470  0.786020  0.381240  1.0  -0.2156
  C  C306  1  0.353670  0.774140  0.367120  1.0  0.0541
  C  C307  1  0.374300  0.689960  0.526640  1.0  0.3864
  C  C308  1  0.323800  0.921320  0.458680  1.0  0.6232
  C  C309  1  0.060360  0.757080  0.016200  1.0  0.0547
  C  C310  1  0.146310  0.693670  0.006110  1.0  -0.2377
  C  C311  1  0.117990  0.640540  0.051880  1.0  0.0784
  C  C312  1  0.036380  0.628580  0.037660  1.0  -0.2394
  C  C313  1  0.950170  0.691760  0.048660  1.0  0.0582
  C  C314  1  0.979480  0.744540  0.002500  1.0  -0.2455
  C  C315  1  0.024450  0.779010  0.087690  1.0  -0.2552
  C  C316  1  0.081340  0.663120  0.122800  1.0  -0.2381
  C  C317  1  0.914730  0.713980  0.118760  1.0  -0.2173
  C  C318  1  0.994930  0.725860  0.132880  1.0  0.0548
  C  C319  1  0.090900  0.810040  0.973360  1.0  0.3851
  C  C320  1  0.203800  0.578680  0.041320  1.0  0.6199
  C  C321  1  0.576560  0.983800  0.257080  1.0  0.0548
  C  C322  1  0.652420  0.993890  0.193670  1.0  -0.2398
  C  C323  1  0.669870  0.948120  0.140540  1.0  0.0782
  C  C324  1  0.574040  0.962340  0.128580  1.0  -0.2375
  C  C325  1  0.498830  0.951340  0.191760  1.0  0.057
  C  C326  1  0.481980  0.997500  0.244540  1.0  -0.2505
  C  C327  1  0.612140  0.912310  0.279010  1.0  -0.2494
  C  C328  1  0.704140  0.877200  0.163120  1.0  -0.2419
  C  C329  1  0.533490  0.881240  0.213980  1.0  -0.2149
  C  C330  1  0.627810  0.867120  0.225860  1.0  0.0548
  C  C331  1  0.564260  0.026640  0.310040  1.0  0.3836
  C  C332  1  0.745120  0.958680  0.078680  1.0  0.6187
  C  C333  1  0.317440  0.516200  0.242920  1.0  0.0553
  C  C334  1  0.339980  0.506110  0.306330  1.0  -0.2408
  C  C335  1  0.258530  0.551880  0.359460  1.0  0.085
  C  C336  1  0.164960  0.537660  0.371420  1.0  -0.2418
  C  C337  1  0.141930  0.548660  0.308240  1.0  0.056
  C  C338  1  0.224020  0.502500  0.255460  1.0  -0.2483
  C  C339  1  0.303460  0.587690  0.220990  1.0  -0.2561
  C  C340  1  0.244460  0.622800  0.336880  1.0  -0.2412
  C  C341  1  0.128710  0.618760  0.286020  1.0  -0.2188
  C  C342  1  0.220790  0.632880  0.274140  1.0  0.0536
  C  C343  1  0.400940  0.473360  0.189960  1.0  0.3852
  C  C344  1  0.282480  0.541320  0.421320  1.0  0.6217
  C  C345  1  0.060360  0.016200  0.757080  1.0  0.0557
  C  C346  1  0.146310  0.006110  0.693670  1.0  -0.2392
  C  C347  1  0.117990  0.051880  0.640540  1.0  0.0783
  C  C348  1  0.036380  0.037660  0.628580  1.0  -0.2376
  C  C349  1  0.950170  0.048660  0.691760  1.0  0.0564
  C  C350  1  0.979480  0.002500  0.744540  1.0  -0.2466
  C  C351  1  0.024450  0.087690  0.779010  1.0  -0.2492
  C  C352  1  0.081340  0.122800  0.663120  1.0  -0.2415
  C  C353  1  0.914730  0.118760  0.713980  1.0  -0.215
  C  C354  1  0.994930  0.132880  0.725860  1.0  0.0543
  C  C355  1  0.090900  0.973360  0.810040  1.0  0.3844
  C  C356  1  0.203800  0.041320  0.578680  1.0  0.6229
  C  C357  1  0.333640  0.483800  0.742920  1.0  0.0543
  C  C358  1  0.346090  0.493890  0.806330  1.0  -0.2412
  C  C359  1  0.310410  0.448120  0.859460  1.0  0.0849
  C  C360  1  0.202620  0.462340  0.871420  1.0  -0.2431
  C  C361  1  0.190590  0.451340  0.808240  1.0  0.0563
  C  C362  1  0.226520  0.497500  0.755460  1.0  -0.2536
  C  C363  1  0.391150  0.412310  0.720990  1.0  -0.2562
  C  C364  1  0.367260  0.377200  0.836880  1.0  -0.2408
  C  C365  1  0.247470  0.381240  0.786020  1.0  -0.2193
  C  C366  1  0.353670  0.367120  0.774140  1.0  0.0537
  C  C367  1  0.374300  0.526640  0.689960  1.0  0.3846
  C  C368  1  0.323800  0.458680  0.921320  1.0  0.6305
  C  C369  1  0.317440  0.242920  0.516200  1.0  0.0552
  C  C370  1  0.339980  0.306330  0.506110  1.0  -0.2373
  C  C371  1  0.258530  0.359460  0.551880  1.0  0.0792
  C  C372  1  0.164960  0.371420  0.537660  1.0  -0.2426
  C  C373  1  0.141930  0.308240  0.548660  1.0  0.0574
  C  C374  1  0.224020  0.255460  0.502500  1.0  -0.2449
  C  C375  1  0.303460  0.220990  0.587690  1.0  -0.2513
  C  C376  1  0.244460  0.336880  0.622800  1.0  -0.2396
  C  C377  1  0.128710  0.286020  0.618760  1.0  -0.2173
  C  C378  1  0.220790  0.274140  0.632880  1.0  0.0538
  C  C379  1  0.400940  0.189960  0.473360  1.0  0.386
  C  C380  1  0.282480  0.421320  0.541320  1.0  0.6168
  C  C381  1  0.576560  0.257080  0.983800  1.0  0.0571
  C  C382  1  0.652420  0.193670  0.993890  1.0  -0.2365
  C  C383  1  0.669870  0.140540  0.948120  1.0  0.0775
  C  C384  1  0.574040  0.128580  0.962340  1.0  -0.2388
  C  C385  1  0.498830  0.191760  0.951340  1.0  0.0602
  C  C386  1  0.481980  0.244540  0.997500  1.0  -0.2524
  C  C387  1  0.612140  0.279010  0.912310  1.0  -0.2539
  C  C388  1  0.704140  0.163120  0.877200  1.0  -0.2408
  C  C389  1  0.533490  0.213980  0.881240  1.0  -0.2158
  C  C390  1  0.627810  0.225860  0.867120  1.0  0.0545
  C  C391  1  0.564260  0.310040  0.026640  1.0  0.3858
  C  C392  1  0.745120  0.078680  0.958680  1.0  0.6172
  C  C393  1  0.666360  0.257080  0.516200  1.0  0.0547
  C  C394  1  0.653910  0.193670  0.506110  1.0  -0.237
  C  C395  1  0.689590  0.140540  0.551880  1.0  0.0758
  C  C396  1  0.797380  0.128580  0.537660  1.0  -0.2386
  C  C397  1  0.809410  0.191760  0.548660  1.0  0.0608
  C  C398  1  0.773480  0.244540  0.502500  1.0  -0.2483
  C  C399  1  0.608850  0.279010  0.587690  1.0  -0.2555
  C  C400  1  0.632740  0.163120  0.622800  1.0  -0.2419
  C  C401  1  0.752530  0.213980  0.618760  1.0  -0.2172
  C  C402  1  0.646330  0.225860  0.632880  1.0  0.0538
  C  C403  1  0.625700  0.310040  0.473360  1.0  0.3862
  C  C404  1  0.676200  0.078680  0.541320  1.0  0.626
  C  C405  1  0.939640  0.242920  0.983800  1.0  0.0596
  C  C406  1  0.853690  0.306330  0.993890  1.0  -0.2442
  C  C407  1  0.882010  0.359460  0.948120  1.0  0.0804
  C  C408  1  0.963620  0.371420  0.962340  1.0  -0.2431
  C  C409  1  0.049830  0.308240  0.951340  1.0  0.0604
  C  C410  1  0.020520  0.255460  0.997500  1.0  -0.2378
  C  C411  1  0.975550  0.220990  0.912310  1.0  -0.2523
  C  C412  1  0.918660  0.336880  0.877200  1.0  -0.2408
  C  C413  1  0.085270  0.286020  0.881240  1.0  -0.2166
  C  C414  1  0.005070  0.274140  0.867120  1.0  0.056
  C  C415  1  0.909100  0.189960  0.026640  1.0  0.386
  C  C416  1  0.796200  0.421320  0.958680  1.0  0.6192
  C  C417  1  0.423440  0.016200  0.742920  1.0  0.0542
  C  C418  1  0.347580  0.006110  0.806330  1.0  -0.2396
  C  C419  1  0.330130  0.051880  0.859460  1.0  0.0827
  C  C420  1  0.425960  0.037660  0.871420  1.0  -0.2311
  C  C421  1  0.501170  0.048660  0.808240  1.0  0.0568
  C  C422  1  0.518020  0.002500  0.755460  1.0  -0.2443
  C  C423  1  0.387860  0.087690  0.720990  1.0  -0.252
  C  C424  1  0.295860  0.122800  0.836880  1.0  -0.2438
  C  C425  1  0.466510  0.118760  0.786020  1.0  -0.2162
  C  C426  1  0.372190  0.132880  0.774140  1.0  0.0542
  C  C427  1  0.435740  0.973360  0.689960  1.0  0.3859
  C  C428  1  0.254880  0.041320  0.921320  1.0  0.6183
  C  C429  1  0.682560  0.483800  0.757080  1.0  0.0551
  C  C430  1  0.660020  0.493890  0.693670  1.0  -0.2423
  C  C431  1  0.741470  0.448120  0.640540  1.0  0.0812
  C  C432  1  0.835040  0.462340  0.628580  1.0  -0.2385
  C  C433  1  0.858070  0.451340  0.691760  1.0  0.0597
  C  C434  1  0.775980  0.497500  0.744540  1.0  -0.2542
  C  C435  1  0.696540  0.412310  0.779010  1.0  -0.2598
  C  C436  1  0.755540  0.377200  0.663120  1.0  -0.2404
  C  C437  1  0.871290  0.381240  0.713980  1.0  -0.2188
  C  C438  1  0.779210  0.367120  0.725860  1.0  0.053
  C  C439  1  0.599060  0.526640  0.810040  1.0  0.3854
  C  C440  1  0.717520  0.458680  0.578680  1.0  0.6232
  C  C441  1  0.509230  0.250000  0.250000  1.0  0.8219
  C  C442  1  0.259230  0.750000  0.750000  1.0  0.8219
  C  C443  1  0.490770  0.750000  0.750000  1.0  0.8207
  C  C444  1  0.740770  0.250000  0.250000  1.0  0.8207
  O  O445  1  0.977400  0.027300  0.131700  1.0  -0.7665
  O  O446  1  0.830600  0.069300  0.189500  1.0  -0.7141
  O  O447  1  0.715800  0.979900  0.413900  1.0  -0.6834
  O  O448  1  0.806000  0.929500  0.476500  1.0  -0.6256
  O  O449  1  0.636400  0.472700  0.368300  1.0  -0.7765
  O  O450  1  0.589400  0.430700  0.310500  1.0  -0.7121
  O  O451  1  0.609600  0.520100  0.086100  1.0  -0.6754
  O  O452  1  0.712000  0.570500  0.023500  1.0  -0.6302
  O  O453  1  0.609100  0.868300  0.527300  1.0  -0.7614
  O  O454  1  0.520100  0.810500  0.569300  1.0  -0.712
  O  O455  1  0.629700  0.586100  0.479900  1.0  -0.6829
  O  O456  1  0.782500  0.523500  0.429500  1.0  -0.6354
  O  O457  1  0.504700  0.631700  0.972700  1.0  -0.7593
  O  O458  1  0.399900  0.689500  0.930700  1.0  -0.7076
  O  O459  1  0.195700  0.913900  0.020100  1.0  -0.6857
  O  O460  1  0.235500  0.976500  0.070500  1.0  -0.6412
  O  O461  1  0.363600  0.631700  0.527300  1.0  -0.7671
  O  O462  1  0.410600  0.689500  0.569300  1.0  -0.7155
  O  O463  1  0.390400  0.913900  0.479900  1.0  -0.6765
  O  O464  1  0.288000  0.976500  0.429500  1.0  -0.6263
  O  O465  1  0.022600  0.868300  0.972700  1.0  -0.7702
  O  O466  1  0.169400  0.810500  0.930700  1.0  -0.714
  O  O467  1  0.284200  0.586100  0.020100  1.0  -0.6818
  O  O468  1  0.194000  0.523500  0.070500  1.0  -0.6161
  O  O469  1  0.495300  0.027300  0.368300  1.0  -0.7646
  O  O470  1  0.600100  0.069300  0.310500  1.0  -0.7056
  O  O471  1  0.804300  0.979900  0.086100  1.0  -0.6814
  O  O472  1  0.764500  0.929500  0.023500  1.0  -0.6456
  O  O473  1  0.390900  0.472700  0.131700  1.0  -0.77
  O  O474  1  0.479900  0.430700  0.189500  1.0  -0.7116
  O  O475  1  0.370300  0.520100  0.413900  1.0  -0.6855
  O  O476  1  0.217500  0.570500  0.476500  1.0  -0.646
  O  O477  1  0.022600  0.972700  0.868300  1.0  -0.7711
  O  O478  1  0.169400  0.930700  0.810500  1.0  -0.7145
  O  O479  1  0.284200  0.020100  0.586100  1.0  -0.6809
  O  O480  1  0.194000  0.070500  0.523500  1.0  -0.6254
  O  O481  1  0.363600  0.527300  0.631700  1.0  -0.7762
  O  O482  1  0.410600  0.569300  0.689500  1.0  -0.7118
  O  O483  1  0.390400  0.479900  0.913900  1.0  -0.6784
  O  O484  1  0.288000  0.429500  0.976500  1.0  -0.6272
  O  O485  1  0.390900  0.131700  0.472700  1.0  -0.7633
  O  O486  1  0.479900  0.189500  0.430700  1.0  -0.7139
  O  O487  1  0.370300  0.413900  0.520100  1.0  -0.6815
  O  O488  1  0.217500  0.476500  0.570500  1.0  -0.6406
  O  O489  1  0.495300  0.368300  0.027300  1.0  -0.7617
  O  O490  1  0.600100  0.310500  0.069300  1.0  -0.7069
  O  O491  1  0.804300  0.086100  0.979900  1.0  -0.6853
  O  O492  1  0.764500  0.023500  0.929500  1.0  -0.6389
  O  O493  1  0.636400  0.368300  0.472700  1.0  -0.764
  O  O494  1  0.589400  0.310500  0.430700  1.0  -0.7169
  O  O495  1  0.609600  0.086100  0.520100  1.0  -0.6771
  O  O496  1  0.712000  0.023500  0.570500  1.0  -0.6239
  O  O497  1  0.977400  0.131700  0.027300  1.0  -0.7692
  O  O498  1  0.830600  0.189500  0.069300  1.0  -0.7118
  O  O499  1  0.715800  0.413900  0.979900  1.0  -0.6836
  O  O500  1  0.806000  0.476500  0.929500  1.0  -0.6174
  O  O501  1  0.504700  0.972700  0.631700  1.0  -0.762
  O  O502  1  0.399900  0.930700  0.689500  1.0  -0.7068
  O  O503  1  0.195700  0.020100  0.913900  1.0  -0.6823
  O  O504  1  0.235500  0.070500  0.976500  1.0  -0.6498
  O  O505  1  0.609100  0.527300  0.868300  1.0  -0.7691
  O  O506  1  0.520100  0.569300  0.810500  1.0  -0.711
  O  O507  1  0.629700  0.479900  0.586100  1.0  -0.6841
  O  O508  1  0.782500  0.429500  0.523500  1.0  -0.6456
  O  O509  1  0.697200  0.140000  0.140000  1.0  -0.716
  O  O510  1  0.477200  0.360000  0.360000  1.0  -0.7152
  O  O511  1  0.337200  0.860000  0.640000  1.0  -0.723
  O  O512  1  0.337200  0.640000  0.860000  1.0  -0.7219
  O  O513  1  0.522800  0.640000  0.640000  1.0  -0.7164
  O  O514  1  0.302800  0.860000  0.860000  1.0  -0.7164
  O  O515  1  0.662800  0.140000  0.360000  1.0  -0.7233
  O  O516  1  0.662800  0.360000  0.140000  1.0  -0.723
  O  O517  1  0.433540  0.250000  0.250000  1.0  -0.4127
  O  O518  1  0.183540  0.750000  0.750000  1.0  -0.4021
  O  O519  1  0.566460  0.750000  0.750000  1.0  -0.4127
  O  O520  1  0.816460  0.250000  0.250000  1.0  -0.4008
  O  O521  1  0.547070  0.214310  0.285690  1.0  -0.6435
  O  O522  1  0.547070  0.285690  0.214310  1.0  -0.6407
  O  O523  1  0.332760  0.714310  0.714310  1.0  -0.6469
  O  O524  1  0.261380  0.785690  0.785690  1.0  -0.6339
  O  O525  1  0.452930  0.785690  0.714310  1.0  -0.6418
  O  O526  1  0.452930  0.714310  0.785690  1.0  -0.6429
  O  O527  1  0.738620  0.214310  0.214310  1.0  -0.633
  O  O528  1  0.667240  0.285690  0.285690  1.0  -0.6485
