# generated using pymatgen
data_Zn2P2HO8
_symmetry_space_group_name_H-M   'P 1'
_cell_length_a   12.09300000
_cell_length_b   14.89700000
_cell_length_c   11.84900000
_cell_angle_alpha   90.00000000
_cell_angle_beta   97.82100000
_cell_angle_gamma   90.00000000
_symmetry_Int_Tables_number   1
_chemical_formula_structural   Zn2P2HO8
_chemical_formula_sum   'Zn16 P16 H8 O64'
_cell_volume   2114.73459609
_cell_formula_units_Z   8
loop_
 _symmetry_equiv_pos_site_id
 _symmetry_equiv_pos_as_xyz
  1  'x, y, z'
loop_
 _atom_site_type_symbol
 _atom_site_label
 _atom_site_symmetry_multiplicity
 _atom_site_fract_x
 _atom_site_fract_y
 _atom_site_fract_z
 _atom_site_occupancy
 _atom_site_charge
  Zn  Zn1  1  0.904160  0.236760  0.088950  1.0  1.1514
  Zn  Zn2  1  0.795520  0.113550  0.543780  1.0  0.8637
  Zn  Zn3  1  0.404160  0.736760  0.088950  1.0  1.1514
  Zn  Zn4  1  0.295520  0.613550  0.543780  1.0  0.8637
  Zn  Zn5  1  0.095840  0.236760  0.411050  1.0  1.1517
  Zn  Zn6  1  0.204480  0.113550  0.956220  1.0  0.8602
  Zn  Zn7  1  0.595840  0.736760  0.411050  1.0  1.1517
  Zn  Zn8  1  0.704480  0.613550  0.956220  1.0  0.8602
  Zn  Zn9  1  0.095840  0.763240  0.911050  1.0  1.1518
  Zn  Zn10  1  0.204480  0.886450  0.456220  1.0  0.8603
  Zn  Zn11  1  0.595840  0.263240  0.911050  1.0  1.1518
  Zn  Zn12  1  0.704480  0.386450  0.456220  1.0  0.8603
  Zn  Zn13  1  0.904160  0.763240  0.588950  1.0  1.1515
  Zn  Zn14  1  0.795520  0.886450  0.043780  1.0  0.8609
  Zn  Zn15  1  0.404160  0.263240  0.588950  1.0  1.1515
  Zn  Zn16  1  0.295520  0.386450  0.043780  1.0  0.8609
  P  P17  1  0.830200  0.238300  0.344620  1.0  1.7679
  P  P18  1  0.747700  0.411020  0.037190  1.0  1.8135
  P  P19  1  0.330200  0.738300  0.344620  1.0  1.7679
  P  P20  1  0.247700  0.911020  0.037190  1.0  1.8135
  P  P21  1  0.169800  0.238300  0.155380  1.0  1.768
  P  P22  1  0.252300  0.411020  0.462810  1.0  1.8144
  P  P23  1  0.669800  0.738300  0.155380  1.0  1.768
  P  P24  1  0.752300  0.911020  0.462810  1.0  1.8144
  P  P25  1  0.169800  0.761700  0.655380  1.0  1.7679
  P  P26  1  0.252300  0.588980  0.962810  1.0  1.8237
  P  P27  1  0.669800  0.261700  0.655380  1.0  1.7679
  P  P28  1  0.752300  0.088980  0.962810  1.0  1.8237
  P  P29  1  0.830200  0.761700  0.844620  1.0  1.7678
  P  P30  1  0.747700  0.588980  0.537190  1.0  1.8231
  P  P31  1  0.330200  0.261700  0.844620  1.0  1.7678
  P  P32  1  0.247700  0.088980  0.537190  1.0  1.8231
  H  H33  1  0.762000  0.405000  0.213000  1.0  0.4175
  H  H34  1  0.262000  0.905000  0.213000  1.0  0.4175
  H  H35  1  0.238000  0.405000  0.287000  1.0  0.4163
  H  H36  1  0.738000  0.905000  0.287000  1.0  0.4163
  H  H37  1  0.238000  0.595000  0.787000  1.0  0.416
  H  H38  1  0.738000  0.095000  0.787000  1.0  0.416
  H  H39  1  0.762000  0.595000  0.713000  1.0  0.4169
  H  H40  1  0.262000  0.095000  0.713000  1.0  0.4169
  O  O41  1  0.839500  0.345400  0.019600  1.0  -0.7795
  O  O42  1  0.847900  0.202230  0.226800  1.0  -0.833
  O  O43  1  0.940700  0.251100  0.422100  1.0  -0.7459
  O  O44  1  0.866100  0.133600  0.987300  1.0  -0.737
  O  O45  1  0.757000  0.169480  0.397700  1.0  -0.7322
  O  O46  1  0.764700  0.328220  0.329800  1.0  -0.8366
  O  O47  1  0.761600  0.492100  0.963000  1.0  -0.7523
  O  O48  1  0.760700  0.445400  0.164100  1.0  -0.6016
  O  O49  1  0.339500  0.845400  0.019600  1.0  -0.7795
  O  O50  1  0.347900  0.702230  0.226800  1.0  -0.833
  O  O51  1  0.440700  0.751100  0.422100  1.0  -0.7459
  O  O52  1  0.366100  0.633600  0.987300  1.0  -0.737
  O  O53  1  0.257000  0.669480  0.397700  1.0  -0.7322
  O  O54  1  0.264700  0.828220  0.329800  1.0  -0.8366
  O  O55  1  0.261600  0.992100  0.963000  1.0  -0.7523
  O  O56  1  0.260700  0.945400  0.164100  1.0  -0.6016
  O  O57  1  0.160500  0.345400  0.480400  1.0  -0.7785
  O  O58  1  0.152100  0.202230  0.273200  1.0  -0.834
  O  O59  1  0.059300  0.251100  0.077900  1.0  -0.7471
  O  O60  1  0.133900  0.133600  0.512700  1.0  -0.7338
  O  O61  1  0.243000  0.169480  0.102300  1.0  -0.732
  O  O62  1  0.235300  0.328220  0.170200  1.0  -0.8347
  O  O63  1  0.238400  0.492100  0.537000  1.0  -0.7514
  O  O64  1  0.239300  0.445400  0.335900  1.0  -0.6012
  O  O65  1  0.660500  0.845400  0.480400  1.0  -0.7785
  O  O66  1  0.652100  0.702230  0.273200  1.0  -0.834
  O  O67  1  0.559300  0.751100  0.077900  1.0  -0.7471
  O  O68  1  0.633900  0.633600  0.512700  1.0  -0.7338
  O  O69  1  0.743000  0.669480  0.102300  1.0  -0.732
  O  O70  1  0.735300  0.828220  0.170200  1.0  -0.8347
  O  O71  1  0.738400  0.992100  0.537000  1.0  -0.7514
  O  O72  1  0.739300  0.945400  0.335900  1.0  -0.6012
  O  O73  1  0.160500  0.654600  0.980400  1.0  -0.7785
  O  O74  1  0.152100  0.797770  0.773200  1.0  -0.8342
  O  O75  1  0.059300  0.748900  0.577900  1.0  -0.7474
  O  O76  1  0.133900  0.866400  0.012700  1.0  -0.7345
  O  O77  1  0.243000  0.830520  0.602300  1.0  -0.7318
  O  O78  1  0.235300  0.671780  0.670200  1.0  -0.8349
  O  O79  1  0.238400  0.507900  0.037000  1.0  -0.7507
  O  O80  1  0.239300  0.554600  0.835900  1.0  -0.6024
  O  O81  1  0.660500  0.154600  0.980400  1.0  -0.7785
  O  O82  1  0.652100  0.297770  0.773200  1.0  -0.8342
  O  O83  1  0.559300  0.248900  0.577900  1.0  -0.7474
  O  O84  1  0.633900  0.366400  0.012700  1.0  -0.7345
  O  O85  1  0.743000  0.330520  0.602300  1.0  -0.7318
  O  O86  1  0.735300  0.171780  0.670200  1.0  -0.8349
  O  O87  1  0.738400  0.007900  0.037000  1.0  -0.7507
  O  O88  1  0.739300  0.054600  0.835900  1.0  -0.6024
  O  O89  1  0.839500  0.654600  0.519600  1.0  -0.7792
  O  O90  1  0.847900  0.797770  0.726800  1.0  -0.8333
  O  O91  1  0.940700  0.748900  0.922100  1.0  -0.7462
  O  O92  1  0.866100  0.866400  0.487300  1.0  -0.7369
  O  O93  1  0.757000  0.830520  0.897700  1.0  -0.7318
  O  O94  1  0.764700  0.671780  0.829800  1.0  -0.8366
  O  O95  1  0.761600  0.507900  0.463000  1.0  -0.7521
  O  O96  1  0.760700  0.554600  0.664100  1.0  -0.603
  O  O97  1  0.339500  0.154600  0.519600  1.0  -0.7792
  O  O98  1  0.347900  0.297770  0.726800  1.0  -0.8333
  O  O99  1  0.440700  0.248900  0.922100  1.0  -0.7462
  O  O100  1  0.366100  0.366400  0.487300  1.0  -0.7369
  O  O101  1  0.257000  0.330520  0.897700  1.0  -0.7318
  O  O102  1  0.264700  0.171780  0.829800  1.0  -0.8366
  O  O103  1  0.261600  0.007900  0.463000  1.0  -0.7521
  O  O104  1  0.260700  0.054600  0.664100  1.0  -0.603
