# generated using pymatgen
data_Zn2P2HO8
_symmetry_space_group_name_H-M   'P 1'
_cell_length_a   12.07550000
_cell_length_b   14.88870000
_cell_length_c   11.83580000
_cell_angle_alpha   90.00000000
_cell_angle_beta   97.71900000
_cell_angle_gamma   90.00000000
_symmetry_Int_Tables_number   1
_chemical_formula_structural   Zn2P2HO8
_chemical_formula_sum   'Zn16 P16 H8 O64'
_cell_volume   2108.65881124
_cell_formula_units_Z   8
loop_
 _symmetry_equiv_pos_site_id
 _symmetry_equiv_pos_as_xyz
  1  'x, y, z'
loop_
 _atom_site_type_symbol
 _atom_site_label
 _atom_site_symmetry_multiplicity
 _atom_site_fract_x
 _atom_site_fract_y
 _atom_site_fract_z
 _atom_site_occupancy
 _atom_site_charge
  Zn  Zn1  1  0.795500  0.386420  0.043870  1.0  0.8436
  Zn  Zn2  1  0.404070  0.236810  0.088930  1.0  1.1556
  Zn  Zn3  1  0.295500  0.886420  0.043870  1.0  0.844
  Zn  Zn4  1  0.904070  0.736810  0.088930  1.0  1.1556
  Zn  Zn5  1  0.204500  0.386420  0.456130  1.0  0.8408
  Zn  Zn6  1  0.595930  0.236810  0.411070  1.0  1.156
  Zn  Zn7  1  0.704500  0.886420  0.456130  1.0  0.8413
  Zn  Zn8  1  0.095930  0.736810  0.411070  1.0  1.156
  Zn  Zn9  1  0.204500  0.613580  0.956130  1.0  0.8414
  Zn  Zn10  1  0.595930  0.763190  0.911070  1.0  1.1561
  Zn  Zn11  1  0.704500  0.113580  0.956130  1.0  0.8426
  Zn  Zn12  1  0.095930  0.263190  0.911070  1.0  1.1561
  Zn  Zn13  1  0.795500  0.613580  0.543870  1.0  0.8442
  Zn  Zn14  1  0.404070  0.763190  0.588930  1.0  1.1556
  Zn  Zn15  1  0.295500  0.113580  0.543870  1.0  0.8454
  Zn  Zn16  1  0.904070  0.263190  0.588930  1.0  1.1556
  P  P17  1  0.669860  0.238300  0.155490  1.0  1.8639
  P  P18  1  0.247870  0.411210  0.037060  1.0  1.8226
  P  P19  1  0.169860  0.738300  0.155490  1.0  1.8639
  P  P20  1  0.747870  0.911210  0.037060  1.0  1.8226
  P  P21  1  0.330140  0.238300  0.344510  1.0  1.864
  P  P22  1  0.752130  0.411210  0.462940  1.0  1.8229
  P  P23  1  0.830140  0.738300  0.344510  1.0  1.864
  P  P24  1  0.252130  0.911210  0.462940  1.0  1.8229
  P  P25  1  0.330140  0.761700  0.844510  1.0  1.8641
  P  P26  1  0.752130  0.588790  0.962940  1.0  1.8282
  P  P27  1  0.830140  0.261700  0.844510  1.0  1.8641
  P  P28  1  0.252130  0.088790  0.962940  1.0  1.8301
  P  P29  1  0.669860  0.761700  0.655490  1.0  1.8638
  P  P30  1  0.247870  0.588790  0.537060  1.0  1.8279
  P  P31  1  0.169860  0.261700  0.655490  1.0  1.8638
  P  P32  1  0.747870  0.088790  0.537060  1.0  1.8298
  H  H33  1  0.253800  0.403400  0.206500  1.0  0.4007
  H  H34  1  0.753800  0.903400  0.206500  1.0  0.4007
  H  H35  1  0.746200  0.403400  0.293500  1.0  0.4012
  H  H36  1  0.246200  0.903400  0.293500  1.0  0.4012
  H  H37  1  0.746200  0.596600  0.793500  1.0  0.4019
  H  H38  1  0.246200  0.096600  0.793500  1.0  0.4019
  H  H39  1  0.253800  0.596600  0.706500  1.0  0.4018
  H  H40  1  0.753800  0.096600  0.706500  1.0  0.4018
  O  O41  1  0.734500  0.328200  0.170500  1.0  -0.842
  O  O42  1  0.262000  0.491900  0.962800  1.0  -0.7492
  O  O43  1  0.742900  0.169500  0.102400  1.0  -0.7334
  O  O44  1  0.560700  0.251400  0.078100  1.0  -0.7473
  O  O45  1  0.651800  0.202000  0.272900  1.0  -0.8179
  O  O46  1  0.339900  0.345500  0.019500  1.0  -0.7929
  O  O47  1  0.134200  0.366500  0.012800  1.0  -0.734
  O  O48  1  0.261100  0.445700  0.163600  1.0  -0.6723
  O  O49  1  0.234500  0.828200  0.170500  1.0  -0.842
  O  O50  1  0.762000  0.991900  0.962800  1.0  -0.7491
  O  O51  1  0.242900  0.669500  0.102400  1.0  -0.7334
  O  O52  1  0.060700  0.751400  0.078100  1.0  -0.7473
  O  O53  1  0.151800  0.702000  0.272900  1.0  -0.8179
  O  O54  1  0.839900  0.845500  0.019500  1.0  -0.7929
  O  O55  1  0.634200  0.866500  0.012800  1.0  -0.734
  O  O56  1  0.761100  0.945700  0.163600  1.0  -0.6727
  O  O57  1  0.265500  0.328200  0.329500  1.0  -0.8425
  O  O58  1  0.738000  0.491900  0.537200  1.0  -0.7486
  O  O59  1  0.257100  0.169500  0.397600  1.0  -0.7331
  O  O60  1  0.439300  0.251400  0.421900  1.0  -0.7467
  O  O61  1  0.348200  0.202000  0.227100  1.0  -0.816
  O  O62  1  0.660100  0.345500  0.480500  1.0  -0.7925
  O  O63  1  0.865800  0.366500  0.487200  1.0  -0.7353
  O  O64  1  0.738900  0.445700  0.336400  1.0  -0.6737
  O  O65  1  0.765500  0.828200  0.329500  1.0  -0.8425
  O  O66  1  0.238000  0.991900  0.537200  1.0  -0.7483
  O  O67  1  0.757100  0.669500  0.397600  1.0  -0.7331
  O  O68  1  0.939300  0.751400  0.421900  1.0  -0.7467
  O  O69  1  0.848200  0.702000  0.227100  1.0  -0.816
  O  O70  1  0.160100  0.845500  0.480500  1.0  -0.7925
  O  O71  1  0.365800  0.866500  0.487200  1.0  -0.7353
  O  O72  1  0.238900  0.945700  0.336400  1.0  -0.674
  O  O73  1  0.265500  0.671800  0.829500  1.0  -0.8432
  O  O74  1  0.738000  0.508100  0.037200  1.0  -0.7475
  O  O75  1  0.257100  0.830500  0.897600  1.0  -0.7329
  O  O76  1  0.439300  0.748600  0.921900  1.0  -0.7468
  O  O77  1  0.348200  0.798000  0.727100  1.0  -0.8175
  O  O78  1  0.660100  0.654500  0.980500  1.0  -0.7926
  O  O79  1  0.865800  0.633500  0.987200  1.0  -0.7358
  O  O80  1  0.738900  0.554300  0.836400  1.0  -0.6739
  O  O81  1  0.765500  0.171800  0.829500  1.0  -0.8432
  O  O82  1  0.238000  0.008100  0.037200  1.0  -0.7477
  O  O83  1  0.757100  0.330500  0.897600  1.0  -0.7329
  O  O84  1  0.939300  0.248600  0.921900  1.0  -0.7468
  O  O85  1  0.848200  0.298000  0.727100  1.0  -0.8175
  O  O86  1  0.160100  0.154500  0.980500  1.0  -0.7926
  O  O87  1  0.365800  0.133500  0.987200  1.0  -0.7358
  O  O88  1  0.238900  0.054300  0.836400  1.0  -0.6741
  O  O89  1  0.734500  0.671800  0.670500  1.0  -0.8409
  O  O90  1  0.262000  0.508100  0.462800  1.0  -0.7488
  O  O91  1  0.742900  0.830500  0.602400  1.0  -0.7332
  O  O92  1  0.560700  0.748600  0.578100  1.0  -0.7475
  O  O93  1  0.651800  0.798000  0.772900  1.0  -0.8198
  O  O94  1  0.339900  0.654500  0.519500  1.0  -0.7926
  O  O95  1  0.134200  0.633500  0.512800  1.0  -0.7352
  O  O96  1  0.261100  0.554300  0.663600  1.0  -0.6733
  O  O97  1  0.234500  0.171800  0.670500  1.0  -0.8409
  O  O98  1  0.762000  0.008100  0.462800  1.0  -0.749
  O  O99  1  0.242900  0.330500  0.602400  1.0  -0.7332
  O  O100  1  0.060700  0.248600  0.578100  1.0  -0.7475
  O  O101  1  0.151800  0.298000  0.772900  1.0  -0.8198
  O  O102  1  0.839900  0.154500  0.519500  1.0  -0.7926
  O  O103  1  0.634200  0.133500  0.512800  1.0  -0.7352
  O  O104  1  0.761100  0.054300  0.663600  1.0  -0.6736
