# generated using pymatgen
data_ZnPO4
_symmetry_space_group_name_H-M   'P 1'
_cell_length_a   12.08300000
_cell_length_b   14.89300000
_cell_length_c   11.78400000
_cell_angle_alpha   90.00000000
_cell_angle_beta   98.16000000
_cell_angle_gamma   90.00000000
_symmetry_Int_Tables_number   1
_chemical_formula_structural   ZnPO4
_chemical_formula_sum   'Zn16 P16 O64'
_cell_volume   2099.08633801
_cell_formula_units_Z   16
loop_
 _symmetry_equiv_pos_site_id
 _symmetry_equiv_pos_as_xyz
  1  'x, y, z'
loop_
 _atom_site_type_symbol
 _atom_site_label
 _atom_site_symmetry_multiplicity
 _atom_site_fract_x
 _atom_site_fract_y
 _atom_site_fract_z
 _atom_site_occupancy
 _atom_site_charge
  Zn  Zn1  1  0.403990  0.735760  0.087980  1.0  1.1899
  Zn  Zn2  1  0.295310  0.613430  0.545040  1.0  0.9631
  Zn  Zn3  1  0.903990  0.235760  0.087980  1.0  1.1899
  Zn  Zn4  1  0.795310  0.113430  0.545040  1.0  0.9631
  Zn  Zn5  1  0.596010  0.735760  0.412020  1.0  1.1905
  Zn  Zn6  1  0.704690  0.613430  0.954960  1.0  0.959
  Zn  Zn7  1  0.096010  0.235760  0.412020  1.0  1.1905
  Zn  Zn8  1  0.204690  0.113430  0.954960  1.0  0.959
  Zn  Zn9  1  0.596010  0.264240  0.912020  1.0  1.1906
  Zn  Zn10  1  0.704690  0.386570  0.454960  1.0  0.9588
  Zn  Zn11  1  0.096010  0.764240  0.912020  1.0  1.1906
  Zn  Zn12  1  0.204690  0.886570  0.454960  1.0  0.9588
  Zn  Zn13  1  0.403990  0.264240  0.587980  1.0  1.1899
  Zn  Zn14  1  0.295310  0.386570  0.045040  1.0  0.9626
  Zn  Zn15  1  0.903990  0.764240  0.587980  1.0  1.1899
  Zn  Zn16  1  0.795310  0.886570  0.045040  1.0  0.9626
  P  P17  1  0.330250  0.737890  0.344630  1.0  1.7507
  P  P18  1  0.248600  0.911630  0.035980  1.0  1.641
  P  P19  1  0.830250  0.237890  0.344630  1.0  1.7507
  P  P20  1  0.748600  0.411630  0.035980  1.0  1.641
  P  P21  1  0.669750  0.737890  0.155370  1.0  1.7506
  P  P22  1  0.751400  0.911630  0.464020  1.0  1.6403
  P  P23  1  0.169750  0.237890  0.155370  1.0  1.7506
  P  P24  1  0.251400  0.411630  0.464020  1.0  1.6403
  P  P25  1  0.669750  0.262110  0.655370  1.0  1.7506
  P  P26  1  0.751400  0.088370  0.964020  1.0  1.6389
  P  P27  1  0.169750  0.762110  0.655370  1.0  1.7506
  P  P28  1  0.251400  0.588370  0.964020  1.0  1.6389
  P  P29  1  0.330250  0.262110  0.844630  1.0  1.7517
  P  P30  1  0.248600  0.088370  0.535980  1.0  1.6396
  P  P31  1  0.830250  0.762110  0.844630  1.0  1.7517
  P  P32  1  0.748600  0.588370  0.535980  1.0  1.6396
  O  O33  1  0.264030  0.992410  0.961690  1.0  -0.7078
  O  O34  1  0.440140  0.751830  0.423480  1.0  -0.7128
  O  O35  1  0.338100  0.843330  0.015800  1.0  -0.7461
  O  O36  1  0.132470  0.868820  0.012360  1.0  -0.7058
  O  O37  1  0.257060  0.668770  0.397270  1.0  -0.6918
  O  O38  1  0.264770  0.827600  0.327880  1.0  -0.6766
  O  O39  1  0.265790  0.944800  0.164240  1.0  -0.5182
  O  O40  1  0.349270  0.701070  0.226920  1.0  -0.7793
  O  O41  1  0.764030  0.492410  0.961690  1.0  -0.7078
  O  O42  1  0.940140  0.251830  0.423480  1.0  -0.7128
  O  O43  1  0.838100  0.343330  0.015800  1.0  -0.7461
  O  O44  1  0.632470  0.368820  0.012360  1.0  -0.7058
  O  O45  1  0.757060  0.168770  0.397270  1.0  -0.6918
  O  O46  1  0.764770  0.327600  0.327880  1.0  -0.6766
  O  O47  1  0.765790  0.444800  0.164240  1.0  -0.5182
  O  O48  1  0.849270  0.201070  0.226920  1.0  -0.7793
  O  O49  1  0.735970  0.992410  0.538310  1.0  -0.7101
  O  O50  1  0.559860  0.751830  0.076520  1.0  -0.7138
  O  O51  1  0.661900  0.843330  0.484200  1.0  -0.7468
  O  O52  1  0.867530  0.868820  0.487640  1.0  -0.7067
  O  O53  1  0.742940  0.668770  0.102730  1.0  -0.6923
  O  O54  1  0.735230  0.827600  0.172120  1.0  -0.6789
  O  O55  1  0.734210  0.944800  0.335760  1.0  -0.5168
  O  O56  1  0.650730  0.701070  0.273080  1.0  -0.7802
  O  O57  1  0.235970  0.492410  0.538310  1.0  -0.7101
  O  O58  1  0.059860  0.251830  0.076520  1.0  -0.7138
  O  O59  1  0.161900  0.343330  0.484200  1.0  -0.7468
  O  O60  1  0.367530  0.368820  0.487640  1.0  -0.7067
  O  O61  1  0.242940  0.168770  0.102730  1.0  -0.6923
  O  O62  1  0.235230  0.327600  0.172120  1.0  -0.6789
  O  O63  1  0.234210  0.444800  0.335760  1.0  -0.5168
  O  O64  1  0.150730  0.201070  0.273080  1.0  -0.7802
  O  O65  1  0.735970  0.007590  0.038310  1.0  -0.7102
  O  O66  1  0.559860  0.248170  0.576520  1.0  -0.7147
  O  O67  1  0.661900  0.156670  0.984200  1.0  -0.7468
  O  O68  1  0.867530  0.131180  0.987640  1.0  -0.7064
  O  O69  1  0.742940  0.331230  0.602730  1.0  -0.6921
  O  O70  1  0.735230  0.172400  0.672120  1.0  -0.6789
  O  O71  1  0.734210  0.055200  0.835760  1.0  -0.516
  O  O72  1  0.650730  0.298930  0.773080  1.0  -0.7809
  O  O73  1  0.235970  0.507590  0.038310  1.0  -0.7102
  O  O74  1  0.059860  0.748170  0.576520  1.0  -0.7147
  O  O75  1  0.161900  0.656670  0.984200  1.0  -0.7468
  O  O76  1  0.367530  0.631180  0.987640  1.0  -0.7064
  O  O77  1  0.242940  0.831230  0.602730  1.0  -0.6921
  O  O78  1  0.235230  0.672400  0.672120  1.0  -0.6789
  O  O79  1  0.234210  0.555200  0.835760  1.0  -0.516
  O  O80  1  0.150730  0.798930  0.773080  1.0  -0.7809
  O  O81  1  0.264030  0.007590  0.461690  1.0  -0.7073
  O  O82  1  0.440140  0.248170  0.923480  1.0  -0.7138
  O  O83  1  0.338100  0.156670  0.515800  1.0  -0.7457
  O  O84  1  0.132470  0.131180  0.512360  1.0  -0.7051
  O  O85  1  0.257060  0.331230  0.897270  1.0  -0.6917
  O  O86  1  0.264770  0.172400  0.827880  1.0  -0.6765
  O  O87  1  0.265790  0.055200  0.664240  1.0  -0.5179
  O  O88  1  0.349270  0.298930  0.726920  1.0  -0.7801
  O  O89  1  0.764030  0.507590  0.461690  1.0  -0.7073
  O  O90  1  0.940140  0.748170  0.923480  1.0  -0.7138
  O  O91  1  0.838100  0.656670  0.515800  1.0  -0.7457
  O  O92  1  0.632470  0.631180  0.512360  1.0  -0.7051
  O  O93  1  0.757060  0.831230  0.897270  1.0  -0.6917
  O  O94  1  0.764770  0.672400  0.827880  1.0  -0.6765
  O  O95  1  0.765790  0.555200  0.664240  1.0  -0.5179
  O  O96  1  0.849270  0.798930  0.726920  1.0  -0.7801
