# generated using pymatgen
data_Mn2P2H2C4SO6
_symmetry_space_group_name_H-M   'P 1'
_cell_length_a   4.96800000
_cell_length_b   11.62100000
_cell_length_c   19.66900000
_cell_angle_alpha   107.16000000
_cell_angle_beta   90.00000000
_cell_angle_gamma   90.00000000
_symmetry_Int_Tables_number   1
_chemical_formula_structural   Mn2P2H2C4SO6
_chemical_formula_sum   'Mn8 P8 H8 C16 S4 O24'
_cell_volume   1085.00327205
_cell_formula_units_Z   4
loop_
 _symmetry_equiv_pos_site_id
 _symmetry_equiv_pos_as_xyz
  1  'x, y, z'
loop_
 _atom_site_type_symbol
 _atom_site_label
 _atom_site_symmetry_multiplicity
 _atom_site_fract_x
 _atom_site_fract_y
 _atom_site_fract_z
 _atom_site_occupancy
 _atom_site_charge
  Mn  Mn1  1  0.725260  0.617300  0.731220  1.0  1.2661
  Mn  Mn2  1  0.720650  0.878470  0.256970  1.0  1.2292
  Mn  Mn3  1  0.223950  0.878680  0.757770  1.0  1.2458
  Mn  Mn4  1  0.225900  0.618600  0.234000  1.0  1.2332
  Mn  Mn5  1  0.725260  0.382700  0.268780  1.0  1.2626
  Mn  Mn6  1  0.720650  0.121530  0.743030  1.0  1.2296
  Mn  Mn7  1  0.223950  0.121320  0.242230  1.0  1.2471
  Mn  Mn8  1  0.225900  0.381400  0.766000  1.0  1.2325
  P  P9  1  0.288200  0.673200  0.836250  1.0  1.5189
  P  P10  1  0.283300  0.832200  0.155350  1.0  1.4497
  P  P11  1  0.784500  0.326700  0.662600  1.0  1.4438
  P  P12  1  0.786900  0.167500  0.342500  1.0  1.5219
  P  P13  1  0.288200  0.326800  0.163750  1.0  1.5198
  P  P14  1  0.283300  0.167800  0.844650  1.0  1.4497
  P  P15  1  0.784500  0.673300  0.337400  1.0  1.4441
  P  P16  1  0.786900  0.832500  0.657500  1.0  1.5232
  H  H17  1  0.757260  0.761220  0.932020  1.0  0.0986
  H  H18  1  0.760930  0.805880  0.064210  1.0  0.0917
  H  H19  1  0.847660  0.076160  0.564900  1.0  0.1098
  H  H20  1  0.961710  0.025870  0.434910  1.0  0.1836
  H  H21  1  0.757260  0.238780  0.067980  1.0  0.0994
  H  H22  1  0.760930  0.194120  0.935790  1.0  0.0917
  H  H23  1  0.847660  0.923840  0.435100  1.0  0.1231
  H  H24  1  0.961710  0.974130  0.565090  1.0  0.167
  C  C25  1  0.347000  0.732900  0.930300  1.0  -0.4042
  C  C26  1  0.360700  0.793800  0.063300  1.0  -0.3401
  C  C27  1  0.598200  0.761100  0.959700  1.0  -0.0221
  C  C28  1  0.599500  0.790400  0.036200  1.0  -0.0471
  C  C29  1  0.833000  0.187800  0.435700  1.0  -0.3518
  C  C30  1  0.847000  0.266300  0.568500  1.0  -0.3536
  C  C31  1  0.860700  0.132900  0.538100  1.0  -0.0673
  C  C32  1  0.896100  0.102900  0.463000  1.0  -0.0211
  C  C33  1  0.347000  0.267100  0.069700  1.0  -0.4046
  C  C34  1  0.360700  0.206200  0.936700  1.0  -0.3405
  C  C35  1  0.598200  0.238900  0.040300  1.0  -0.0214
  C  C36  1  0.599500  0.209600  0.963800  1.0  -0.046
  C  C37  1  0.833000  0.812200  0.564300  1.0  -0.3552
  C  C38  1  0.847000  0.733700  0.431500  1.0  -0.3501
  C  C39  1  0.860700  0.867100  0.461900  1.0  -0.0735
  C  C40  1  0.896100  0.897100  0.537000  1.0  -0.0197
  S  S41  1  0.114300  0.744300  0.996810  1.0  0.2306
  S  S42  1  0.806700  0.327700  0.502800  1.0  0.2117
  S  S43  1  0.114300  0.255700  0.003190  1.0  0.2307
  S  S44  1  0.806700  0.672300  0.497200  1.0  0.2134
  O  O45  1  0.432000  0.749400  0.799000  1.0  -0.8746
  O  O46  1  0.435000  0.548500  0.807000  1.0  -0.8703
  O  O47  1  0.992200  0.665600  0.821800  1.0  -0.8441
  O  O48  1  0.429000  0.733300  0.184700  1.0  -0.8615
  O  O49  1  0.430000  0.954100  0.190300  1.0  -0.8694
  O  O50  1  0.980500  0.835800  0.167200  1.0  -0.8106
  O  O51  1  0.928000  0.239900  0.699200  1.0  -0.8579
  O  O52  1  0.932000  0.450600  0.686300  1.0  -0.8471
  O  O53  1  0.484000  0.333900  0.674600  1.0  -0.8217
  O  O54  1  0.923000  0.258300  0.314600  1.0  -0.8714
  O  O55  1  0.920000  0.045200  0.303300  1.0  -0.8818
  O  O56  1  0.487000  0.166700  0.331400  1.0  -0.8176
  O  O57  1  0.432000  0.250600  0.201000  1.0  -0.8752
  O  O58  1  0.435000  0.451500  0.193000  1.0  -0.8713
  O  O59  1  0.992200  0.334400  0.178200  1.0  -0.844
  O  O60  1  0.429000  0.266700  0.815300  1.0  -0.8623
  O  O61  1  0.430000  0.045900  0.809700  1.0  -0.8665
  O  O62  1  0.980500  0.164200  0.832800  1.0  -0.8105
  O  O63  1  0.928000  0.760100  0.300800  1.0  -0.8573
  O  O64  1  0.932000  0.549400  0.313700  1.0  -0.8459
  O  O65  1  0.484000  0.666100  0.325400  1.0  -0.8216
  O  O66  1  0.923000  0.741700  0.685400  1.0  -0.871
  O  O67  1  0.920000  0.954800  0.696700  1.0  -0.8817
  O  O68  1  0.487000  0.833300  0.668600  1.0  -0.815
