# generated using pymatgen
data_KH12C22N9
_symmetry_space_group_name_H-M   'P 1'
_cell_length_a   9.63480000
_cell_length_b   20.82200000
_cell_length_c   20.82200000
_cell_angle_alpha   90.00000000
_cell_angle_beta   90.00000000
_cell_angle_gamma   90.00000000
_symmetry_Int_Tables_number   1
_chemical_formula_structural   KH12C22N9
_chemical_formula_sum   'K8 H96 C176 N72'
_cell_volume   4177.22230420
_cell_formula_units_Z   8
loop_
 _symmetry_equiv_pos_site_id
 _symmetry_equiv_pos_as_xyz
  1  'x, y, z'
loop_
 _atom_site_type_symbol
 _atom_site_label
 _atom_site_symmetry_multiplicity
 _atom_site_fract_x
 _atom_site_fract_y
 _atom_site_fract_z
 _atom_site_occupancy
 _atom_site_charge
  K  K1  1  0.138700  0.836630  0.015630  1.0  0.8946
  K  K2  1  0.138700  0.663370  0.484370  1.0  0.8946
  K  K3  1  0.638700  0.984370  0.336630  1.0  0.8941
  K  K4  1  0.638700  0.515630  0.163370  1.0  0.8941
  K  K5  1  0.861300  0.163370  0.984370  1.0  0.8943
  K  K6  1  0.861300  0.336630  0.515630  1.0  0.8948
  K  K7  1  0.361300  0.015630  0.663370  1.0  0.8943
  K  K8  1  0.361300  0.484370  0.836630  1.0  0.8938
  H  H9  1  0.779000  0.870100  0.824300  1.0  0.1155
  H  H10  1  0.620000  0.953400  0.844700  1.0  0.1001
  H  H11  1  0.626000  0.760100  0.955500  1.0  0.071
  H  H12  1  0.462000  0.838400  0.982900  1.0  0.0994
  H  H13  1  0.119000  0.366700  0.891100  1.0  0.0602
  H  H14  1  0.097000  0.265300  0.937600  1.0  0.1009
  H  H15  1  0.432000  0.312900  0.785500  1.0  0.0594
  H  H16  1  0.428000  0.205400  0.828800  1.0  0.1044
  H  H17  1  0.884000  0.910200  0.234500  1.0  0.0588
  H  H18  1  0.032000  0.924100  0.143900  1.0  0.0821
  H  H19  1  0.746000  0.081200  0.212600  1.0  0.0657
  H  H20  1  0.896000  0.108700  0.128900  1.0  0.0963
  H  H21  1  0.779000  0.629900  0.675700  1.0  0.1145
  H  H22  1  0.620000  0.546600  0.655300  1.0  0.0996
  H  H23  1  0.626000  0.739900  0.544500  1.0  0.0713
  H  H24  1  0.462000  0.661600  0.517100  1.0  0.0999
  H  H25  1  0.119000  0.133300  0.608900  1.0  0.0599
  H  H26  1  0.097000  0.234700  0.562400  1.0  0.1013
  H  H27  1  0.432000  0.187100  0.714500  1.0  0.0598
  H  H28  1  0.428000  0.294600  0.671200  1.0  0.1038
  H  H29  1  0.884000  0.589800  0.265500  1.0  0.0583
  H  H30  1  0.032000  0.575900  0.356100  1.0  0.0823
  H  H31  1  0.746000  0.418800  0.287400  1.0  0.0655
  H  H32  1  0.896000  0.391300  0.371100  1.0  0.0964
  H  H33  1  0.279000  0.175700  0.370100  1.0  0.1151
  H  H34  1  0.120000  0.155300  0.453400  1.0  0.1003
  H  H35  1  0.126000  0.044500  0.260100  1.0  0.0697
  H  H36  1  0.962000  0.017100  0.338400  1.0  0.0995
  H  H37  1  0.619000  0.108900  0.866700  1.0  0.0601
  H  H38  1  0.597000  0.062400  0.765300  1.0  0.1012
  H  H39  1  0.932000  0.214500  0.812900  1.0  0.0595
  H  H40  1  0.928000  0.171200  0.705400  1.0  0.104
  H  H41  1  0.384000  0.765500  0.410200  1.0  0.0573
  H  H42  1  0.532000  0.856100  0.424100  1.0  0.0814
  H  H43  1  0.246000  0.787400  0.581200  1.0  0.0666
  H  H44  1  0.396000  0.871100  0.608700  1.0  0.096
  H  H45  1  0.279000  0.324300  0.129900  1.0  0.1162
  H  H46  1  0.120000  0.344700  0.046600  1.0  0.1005
  H  H47  1  0.126000  0.455500  0.239900  1.0  0.0704
  H  H48  1  0.962000  0.482900  0.161600  1.0  0.0994
  H  H49  1  0.619000  0.391100  0.633300  1.0  0.0597
  H  H50  1  0.597000  0.437600  0.734700  1.0  0.1014
  H  H51  1  0.932000  0.285500  0.687100  1.0  0.0598
  H  H52  1  0.928000  0.328800  0.794600  1.0  0.1041
  H  H53  1  0.384000  0.734500  0.089800  1.0  0.0573
  H  H54  1  0.532000  0.643900  0.075900  1.0  0.0817
  H  H55  1  0.246000  0.712600  0.918800  1.0  0.0674
  H  H56  1  0.396000  0.628900  0.891300  1.0  0.099
  H  H57  1  0.221000  0.129900  0.175700  1.0  0.1147
  H  H58  1  0.380000  0.046600  0.155300  1.0  0.0995
  H  H59  1  0.374000  0.239900  0.044500  1.0  0.0713
  H  H60  1  0.538000  0.161600  0.017100  1.0  0.0999
  H  H61  1  0.881000  0.633300  0.108900  1.0  0.0598
  H  H62  1  0.903000  0.734700  0.062400  1.0  0.1013
  H  H63  1  0.568000  0.687100  0.214500  1.0  0.0597
  H  H64  1  0.572000  0.794600  0.171200  1.0  0.1043
  H  H65  1  0.116000  0.089800  0.765500  1.0  0.0578
  H  H66  1  0.968000  0.075900  0.856100  1.0  0.0819
  H  H67  1  0.254000  0.918800  0.787400  1.0  0.0662
  H  H68  1  0.104000  0.891300  0.871100  1.0  0.096
  H  H69  1  0.221000  0.370100  0.324300  1.0  0.1155
  H  H70  1  0.380000  0.453400  0.344700  1.0  0.1003
  H  H71  1  0.374000  0.260100  0.455500  1.0  0.071
  H  H72  1  0.538000  0.338400  0.482900  1.0  0.0996
  H  H73  1  0.881000  0.866700  0.391100  1.0  0.0597
  H  H74  1  0.903000  0.765300  0.437600  1.0  0.1012
  H  H75  1  0.568000  0.812900  0.285500  1.0  0.0596
  H  H76  1  0.572000  0.705400  0.328800  1.0  0.105
  H  H77  1  0.116000  0.410200  0.734500  1.0  0.0581
  H  H78  1  0.968000  0.424100  0.643900  1.0  0.0814
  H  H79  1  0.254000  0.581200  0.712600  1.0  0.0654
  H  H80  1  0.104000  0.608700  0.628900  1.0  0.0962
  H  H81  1  0.721000  0.824300  0.629900  1.0  0.116
  H  H82  1  0.880000  0.844700  0.546600  1.0  0.1004
  H  H83  1  0.874000  0.955500  0.739900  1.0  0.0705
  H  H84  1  0.038000  0.982900  0.661600  1.0  0.0991
  H  H85  1  0.381000  0.891100  0.133300  1.0  0.0593
  H  H86  1  0.403000  0.937600  0.234700  1.0  0.1016
  H  H87  1  0.068000  0.785500  0.187100  1.0  0.0596
  H  H88  1  0.072000  0.828800  0.294600  1.0  0.1045
  H  H89  1  0.616000  0.234500  0.589800  1.0  0.0571
  H  H90  1  0.468000  0.143900  0.575900  1.0  0.081
  H  H91  1  0.754000  0.212600  0.418800  1.0  0.0674
  H  H92  1  0.604000  0.128900  0.391300  1.0  0.0993
  H  H93  1  0.721000  0.675700  0.870100  1.0  0.1159
  H  H94  1  0.880000  0.655300  0.953400  1.0  0.1006
  H  H95  1  0.874000  0.544500  0.760100  1.0  0.0698
  H  H96  1  0.038000  0.517100  0.838400  1.0  0.0997
  H  H97  1  0.381000  0.608900  0.366700  1.0  0.0599
  H  H98  1  0.403000  0.562400  0.265300  1.0  0.1019
  H  H99  1  0.068000  0.714500  0.312900  1.0  0.0596
  H  H100  1  0.072000  0.671200  0.205400  1.0  0.1047
  H  H101  1  0.616000  0.265500  0.910200  1.0  0.0568
  H  H102  1  0.468000  0.356100  0.924100  1.0  0.0811
  H  H103  1  0.754000  0.287400  0.081200  1.0  0.0677
  H  H104  1  0.604000  0.371100  0.108700  1.0  0.0961
  C  C105  1  0.521490  0.904390  0.916570  1.0  -0.0761
  C  C106  1  0.713180  0.866790  0.853960  1.0  0.1307
  C  C107  1  0.616830  0.914390  0.867310  1.0  -0.1094
  C  C108  1  0.626960  0.801370  0.932090  1.0  0.1135
  C  C109  1  0.526220  0.845900  0.949040  1.0  -0.1236
  C  C110  1  0.421890  0.955560  0.936110  1.0  0.4367
  C  C111  1  0.258430  0.224410  0.886950  1.0  -0.012
  C  C112  1  0.180740  0.333660  0.877680  1.0  0.1777
  C  C113  1  0.167520  0.273120  0.905370  1.0  -0.1715
  C  C114  1  0.363600  0.301160  0.816580  1.0  0.17
  C  C115  1  0.358580  0.239320  0.841410  1.0  -0.1891
  C  C116  1  0.252860  0.159030  0.916680  1.0  0.4433
  C  C117  1  0.982350  0.014720  0.124310  1.0  -0.0252
  C  C118  1  0.884590  0.949020  0.207110  1.0  0.1532
  C  C119  1  0.976560  0.956280  0.156300  1.0  -0.1547
  C  C120  1  0.807480  0.051730  0.196810  1.0  0.1646
  C  C121  1  0.895580  0.063800  0.145720  1.0  -0.1424
  C  C122  1  0.077360  0.024770  0.068840  1.0  0.4574
  C  C123  1  0.248970  0.986350  0.004300  1.0  0.5427
  C  C124  1  0.252100  0.046500  0.974080  1.0  -0.3008
  C  C125  1  0.345590  0.058450  0.924010  1.0  0.5387
  C  C126  1  0.157450  0.093960  0.992570  1.0  0.516
  C  C127  1  0.521490  0.595610  0.583430  1.0  -0.0773
  C  C128  1  0.713180  0.633210  0.646040  1.0  0.1322
  C  C129  1  0.616830  0.585610  0.632690  1.0  -0.1106
  C  C130  1  0.626960  0.698630  0.567910  1.0  0.1162
  C  C131  1  0.526220  0.654100  0.550960  1.0  -0.1229
  C  C132  1  0.421890  0.544440  0.563890  1.0  0.4369
  C  C133  1  0.258430  0.275590  0.613050  1.0  -0.0118
  C  C134  1  0.180740  0.166340  0.622320  1.0  0.178
  C  C135  1  0.167520  0.226880  0.594630  1.0  -0.1722
  C  C136  1  0.363600  0.198840  0.683420  1.0  0.1702
  C  C137  1  0.358580  0.260680  0.658590  1.0  -0.1908
  C  C138  1  0.252860  0.340970  0.583320  1.0  0.4431
  C  C139  1  0.982350  0.485280  0.375690  1.0  -0.0256
  C  C140  1  0.884590  0.550980  0.292890  1.0  0.1526
  C  C141  1  0.976560  0.543720  0.343700  1.0  -0.1552
  C  C142  1  0.807480  0.448270  0.303190  1.0  0.1659
  C  C143  1  0.895580  0.436200  0.354280  1.0  -0.1396
  C  C144  1  0.077360  0.475230  0.431160  1.0  0.4574
  C  C145  1  0.248970  0.513650  0.495700  1.0  0.5416
  C  C146  1  0.252100  0.453500  0.525920  1.0  -0.3013
  C  C147  1  0.345590  0.441550  0.575990  1.0  0.5362
  C  C148  1  0.157450  0.406040  0.507430  1.0  0.5165
  C  C149  1  0.021490  0.083430  0.404390  1.0  -0.0741
  C  C150  1  0.213180  0.146040  0.366790  1.0  0.1296
  C  C151  1  0.116830  0.132690  0.414390  1.0  -0.111
  C  C152  1  0.126960  0.067910  0.301370  1.0  0.1201
  C  C153  1  0.026220  0.050960  0.345900  1.0  -0.1253
  C  C154  1  0.921890  0.063890  0.455560  1.0  0.4371
  C  C155  1  0.758430  0.113050  0.724410  1.0  -0.0138
  C  C156  1  0.680740  0.122320  0.833660  1.0  0.1794
  C  C157  1  0.667520  0.094630  0.773120  1.0  -0.1719
  C  C158  1  0.863600  0.183420  0.801160  1.0  0.1697
  C  C159  1  0.858580  0.158590  0.739320  1.0  -0.1889
  C  C160  1  0.752860  0.083320  0.659030  1.0  0.4429
  C  C161  1  0.482350  0.875690  0.514720  1.0  -0.0207
  C  C162  1  0.384590  0.792890  0.449020  1.0  0.1535
  C  C163  1  0.476560  0.843700  0.456280  1.0  -0.1548
  C  C164  1  0.307480  0.803190  0.551730  1.0  0.1666
  C  C165  1  0.395580  0.854280  0.563800  1.0  -0.1378
  C  C166  1  0.577360  0.931160  0.524770  1.0  0.4578
  C  C167  1  0.748970  0.995700  0.486350  1.0  0.5453
  C  C168  1  0.752100  0.025920  0.546500  1.0  -0.3013
  C  C169  1  0.845590  0.075990  0.558450  1.0  0.5343
  C  C170  1  0.657450  0.007430  0.593960  1.0  0.5186
  C  C171  1  0.021490  0.416570  0.095610  1.0  -0.0752
  C  C172  1  0.213180  0.353960  0.133210  1.0  0.1275
  C  C173  1  0.116830  0.367310  0.085610  1.0  -0.1113
  C  C174  1  0.126960  0.432090  0.198630  1.0  0.1203
  C  C175  1  0.026220  0.449040  0.154100  1.0  -0.1244
  C  C176  1  0.921890  0.436110  0.044440  1.0  0.4371
  C  C177  1  0.758430  0.386950  0.775590  1.0  -0.0127
  C  C178  1  0.680740  0.377680  0.666340  1.0  0.1794
  C  C179  1  0.667520  0.405370  0.726880  1.0  -0.1723
  C  C180  1  0.863600  0.316580  0.698840  1.0  0.1703
  C  C181  1  0.858580  0.341410  0.760680  1.0  -0.1872
  C  C182  1  0.752860  0.416680  0.840970  1.0  0.4427
  C  C183  1  0.482350  0.624310  0.985280  1.0  -0.0213
  C  C184  1  0.384590  0.707110  0.050980  1.0  0.1537
  C  C185  1  0.476560  0.656300  0.043720  1.0  -0.1549
  C  C186  1  0.307480  0.696810  0.948270  1.0  0.1663
  C  C187  1  0.395580  0.645720  0.936200  1.0  -0.1356
  C  C188  1  0.577360  0.568840  0.975230  1.0  0.4574
  C  C189  1  0.748970  0.504300  0.013650  1.0  0.544
  C  C190  1  0.752100  0.474080  0.953500  1.0  -0.3012
  C  C191  1  0.845590  0.424010  0.941550  1.0  0.5345
  C  C192  1  0.657450  0.492570  0.906040  1.0  0.5189
  C  C193  1  0.478510  0.095610  0.083430  1.0  -0.0786
  C  C194  1  0.286820  0.133210  0.146040  1.0  0.1316
  C  C195  1  0.383170  0.085610  0.132690  1.0  -0.1109
  C  C196  1  0.373040  0.198630  0.067910  1.0  0.1162
  C  C197  1  0.473780  0.154100  0.050960  1.0  -0.1213
  C  C198  1  0.578110  0.044440  0.063890  1.0  0.4365
  C  C199  1  0.741570  0.775590  0.113050  1.0  -0.0114
  C  C200  1  0.819260  0.666340  0.122320  1.0  0.1776
  C  C201  1  0.832480  0.726880  0.094630  1.0  -0.1694
  C  C202  1  0.636400  0.698840  0.183420  1.0  0.1703
  C  C203  1  0.641420  0.760680  0.158590  1.0  -0.1933
  C  C204  1  0.747140  0.840970  0.083320  1.0  0.443
  C  C205  1  0.017650  0.985280  0.875690  1.0  -0.0273
  C  C206  1  0.115410  0.050980  0.792890  1.0  0.1535
  C  C207  1  0.023440  0.043720  0.843700  1.0  -0.1554
  C  C208  1  0.192520  0.948270  0.803190  1.0  0.1654
  C  C209  1  0.104420  0.936200  0.854280  1.0  -0.1403
  C  C210  1  0.922640  0.975230  0.931160  1.0  0.4582
  C  C211  1  0.751030  0.013650  0.995700  1.0  0.5416
  C  C212  1  0.747900  0.953500  0.025920  1.0  -0.3016
  C  C213  1  0.654410  0.941550  0.075990  1.0  0.5357
  C  C214  1  0.842550  0.906040  0.007430  1.0  0.5166
  C  C215  1  0.478510  0.404390  0.416570  1.0  -0.0776
  C  C216  1  0.286820  0.366790  0.353960  1.0  0.1316
  C  C217  1  0.383170  0.414390  0.367310  1.0  -0.1094
  C  C218  1  0.373040  0.301370  0.432090  1.0  0.1137
  C  C219  1  0.473780  0.345900  0.449040  1.0  -0.122
  C  C220  1  0.578110  0.455560  0.436110  1.0  0.4361
  C  C221  1  0.741570  0.724410  0.386950  1.0  -0.0114
  C  C222  1  0.819260  0.833660  0.377680  1.0  0.1774
  C  C223  1  0.832480  0.773120  0.405370  1.0  -0.1687
  C  C224  1  0.636400  0.801160  0.316580  1.0  0.1702
  C  C225  1  0.641420  0.739320  0.341410  1.0  -0.1915
  C  C226  1  0.747140  0.659030  0.416680  1.0  0.4431
  C  C227  1  0.017650  0.514720  0.624310  1.0  -0.0267
  C  C228  1  0.115410  0.449020  0.707110  1.0  0.154
  C  C229  1  0.023440  0.456280  0.656300  1.0  -0.155
  C  C230  1  0.192520  0.551730  0.696810  1.0  0.1647
  C  C231  1  0.104420  0.563800  0.645720  1.0  -0.1426
  C  C232  1  0.922640  0.524770  0.568840  1.0  0.4581
  C  C233  1  0.751030  0.486350  0.504300  1.0  0.5426
  C  C234  1  0.747900  0.546500  0.474080  1.0  -0.3013
  C  C235  1  0.654410  0.558450  0.424010  1.0  0.5376
  C  C236  1  0.842550  0.593960  0.492570  1.0  0.5156
  C  C237  1  0.978510  0.916570  0.595610  1.0  -0.0763
  C  C238  1  0.786820  0.853960  0.633210  1.0  0.1279
  C  C239  1  0.883170  0.867310  0.585610  1.0  -0.1117
  C  C240  1  0.873040  0.932090  0.698630  1.0  0.1204
  C  C241  1  0.973780  0.949040  0.654100  1.0  -0.1231
  C  C242  1  0.078110  0.936110  0.544440  1.0  0.4366
  C  C243  1  0.241570  0.886950  0.275590  1.0  -0.0126
  C  C244  1  0.319260  0.877680  0.166340  1.0  0.179
  C  C245  1  0.332480  0.905370  0.226880  1.0  -0.1695
  C  C246  1  0.136400  0.816580  0.198840  1.0  0.1705
  C  C247  1  0.141420  0.841410  0.260680  1.0  -0.1899
  C  C248  1  0.247140  0.916680  0.340970  1.0  0.4424
  C  C249  1  0.517650  0.124310  0.485280  1.0  -0.0228
  C  C250  1  0.615410  0.207110  0.550980  1.0  0.1547
  C  C251  1  0.523440  0.156300  0.543720  1.0  -0.1549
  C  C252  1  0.692520  0.196810  0.448270  1.0  0.1666
  C  C253  1  0.604420  0.145720  0.436200  1.0  -0.1361
  C  C254  1  0.422640  0.068840  0.475230  1.0  0.4582
  C  C255  1  0.251030  0.004300  0.513650  1.0  0.5438
  C  C256  1  0.247900  0.974080  0.453500  1.0  -0.3016
  C  C257  1  0.154410  0.924010  0.441550  1.0  0.5333
  C  C258  1  0.342550  0.992570  0.406040  1.0  0.5189
  C  C259  1  0.978510  0.583430  0.904390  1.0  -0.076
  C  C260  1  0.786820  0.646040  0.866790  1.0  0.129
  C  C261  1  0.883170  0.632690  0.914390  1.0  -0.1111
  C  C262  1  0.873040  0.567910  0.801370  1.0  0.12
  C  C263  1  0.973780  0.550960  0.845900  1.0  -0.1235
  C  C264  1  0.078110  0.563890  0.955560  1.0  0.4366
  C  C265  1  0.241570  0.613050  0.224410  1.0  -0.0129
  C  C266  1  0.319260  0.622320  0.333660  1.0  0.1793
  C  C267  1  0.332480  0.594630  0.273120  1.0  -0.1691
  C  C268  1  0.136400  0.683420  0.301160  1.0  0.1697
  C  C269  1  0.141420  0.658590  0.239320  1.0  -0.1915
  C  C270  1  0.247140  0.583320  0.159030  1.0  0.4426
  C  C271  1  0.517650  0.375690  0.014720  1.0  -0.0224
  C  C272  1  0.615410  0.292890  0.949020  1.0  0.1544
  C  C273  1  0.523440  0.343700  0.956280  1.0  -0.1549
  C  C274  1  0.692520  0.303190  0.051730  1.0  0.1663
  C  C275  1  0.604420  0.354280  0.063800  1.0  -0.1377
  C  C276  1  0.422640  0.431160  0.024770  1.0  0.4585
  C  C277  1  0.251030  0.495700  0.986350  1.0  0.545
  C  C278  1  0.247900  0.525920  0.046500  1.0  -0.3017
  C  C279  1  0.154410  0.575990  0.058450  1.0  0.5333
  C  C280  1  0.342550  0.507430  0.093960  1.0  0.5185
  N  N281  1  0.721370  0.811020  0.886010  1.0  -0.4211
  N  N282  1  0.334130  0.939110  0.983850  1.0  -0.5401
  N  N283  1  0.434120  0.011570  0.904990  1.0  -0.5003
  N  N284  1  0.276700  0.348370  0.833550  1.0  -0.448
  N  N285  1  0.348130  0.116970  0.895550  1.0  -0.5164
  N  N286  1  0.154750  0.151190  0.961780  1.0  -0.5122
  N  N287  1  0.800640  0.995510  0.227860  1.0  -0.4352
  N  N288  1  0.067860  0.082840  0.040950  1.0  -0.5224
  N  N289  1  0.159900  0.975370  0.053450  1.0  -0.5589
  N  N290  1  0.721370  0.688980  0.613990  1.0  -0.4219
  N  N291  1  0.334130  0.560890  0.516150  1.0  -0.5419
  N  N292  1  0.434120  0.488430  0.595010  1.0  -0.4994
  N  N293  1  0.276700  0.151630  0.666450  1.0  -0.4488
  N  N294  1  0.348130  0.383030  0.604450  1.0  -0.5158
  N  N295  1  0.154750  0.348810  0.538220  1.0  -0.5111
  N  N296  1  0.800640  0.504490  0.272140  1.0  -0.436
  N  N297  1  0.067860  0.417160  0.459050  1.0  -0.5227
  N  N298  1  0.159900  0.524630  0.446550  1.0  -0.5598
  N  N299  1  0.221370  0.113990  0.311020  1.0  -0.4258
  N  N300  1  0.834130  0.016150  0.439110  1.0  -0.5436
  N  N301  1  0.934120  0.095010  0.511570  1.0  -0.5025
  N  N302  1  0.776700  0.166450  0.848370  1.0  -0.4504
  N  N303  1  0.848130  0.104450  0.616970  1.0  -0.5154
  N  N304  1  0.654750  0.038220  0.651190  1.0  -0.5087
  N  N305  1  0.300640  0.772140  0.495510  1.0  -0.4304
  N  N306  1  0.567860  0.959050  0.582840  1.0  -0.5191
  N  N307  1  0.659900  0.946550  0.475370  1.0  -0.5616
  N  N308  1  0.221370  0.386010  0.188980  1.0  -0.4259
  N  N309  1  0.834130  0.483850  0.060890  1.0  -0.5435
  N  N310  1  0.934120  0.404990  0.988430  1.0  -0.4994
  N  N311  1  0.776700  0.333550  0.651630  1.0  -0.4486
  N  N312  1  0.848130  0.395550  0.883030  1.0  -0.514
  N  N313  1  0.654750  0.461780  0.848810  1.0  -0.5102
  N  N314  1  0.300640  0.727860  0.004490  1.0  -0.4297
  N  N315  1  0.567860  0.540950  0.917160  1.0  -0.5193
  N  N316  1  0.659900  0.553450  0.024630  1.0  -0.5612
  N  N317  1  0.278630  0.188980  0.113990  1.0  -0.4217
  N  N318  1  0.665870  0.060890  0.016150  1.0  -0.542
  N  N319  1  0.565880  0.988430  0.095010  1.0  -0.5005
  N  N320  1  0.723300  0.651630  0.166450  1.0  -0.4487
  N  N321  1  0.651870  0.883030  0.104450  1.0  -0.5171
  N  N322  1  0.845250  0.848810  0.038220  1.0  -0.5089
  N  N323  1  0.199360  0.004490  0.772140  1.0  -0.438
  N  N324  1  0.932140  0.917160  0.959050  1.0  -0.5192
  N  N325  1  0.840100  0.024630  0.946550  1.0  -0.56
  N  N326  1  0.278630  0.311020  0.386010  1.0  -0.4203
  N  N327  1  0.665870  0.439110  0.483850  1.0  -0.5398
  N  N328  1  0.565880  0.511570  0.404990  1.0  -0.5004
  N  N329  1  0.723300  0.848370  0.333550  1.0  -0.4479
  N  N330  1  0.651870  0.616970  0.395550  1.0  -0.5165
  N  N331  1  0.845250  0.651190  0.461780  1.0  -0.5116
  N  N332  1  0.199360  0.495510  0.727860  1.0  -0.4345
  N  N333  1  0.932140  0.582840  0.540950  1.0  -0.5212
  N  N334  1  0.840100  0.475370  0.553450  1.0  -0.5593
  N  N335  1  0.778630  0.886010  0.688980  1.0  -0.4269
  N  N336  1  0.165870  0.983850  0.560890  1.0  -0.543
  N  N337  1  0.065880  0.904990  0.488430  1.0  -0.5012
  N  N338  1  0.223300  0.833550  0.151630  1.0  -0.4484
  N  N339  1  0.151870  0.895550  0.383030  1.0  -0.5154
  N  N340  1  0.345250  0.961780  0.348810  1.0  -0.5099
  N  N341  1  0.699360  0.227860  0.504490  1.0  -0.4308
  N  N342  1  0.432140  0.040950  0.417160  1.0  -0.5185
  N  N343  1  0.340100  0.053450  0.524630  1.0  -0.5616
  N  N344  1  0.778630  0.613990  0.811020  1.0  -0.4243
  N  N345  1  0.165870  0.516150  0.939110  1.0  -0.5434
  N  N346  1  0.065880  0.595010  0.011570  1.0  -0.5027
  N  N347  1  0.223300  0.666450  0.348370  1.0  -0.4502
  N  N348  1  0.151870  0.604450  0.116970  1.0  -0.5157
  N  N349  1  0.345250  0.538220  0.151190  1.0  -0.5069
  N  N350  1  0.699360  0.272140  0.995510  1.0  -0.4296
  N  N351  1  0.432140  0.459050  0.082840  1.0  -0.5164
  N  N352  1  0.340100  0.446550  0.975370  1.0  -0.5617
