# generated using pymatgen
data_Li2H3C8NO4
_symmetry_space_group_name_H-M   'P 1'
_cell_length_a   9.66600000
_cell_length_b   11.69200000
_cell_length_c   12.36600000
_cell_angle_alpha   72.75000000
_cell_angle_beta   67.91200000
_cell_angle_gamma   76.86900000
_symmetry_Int_Tables_number   1
_chemical_formula_structural   Li2H3C8NO4
_chemical_formula_sum   'Li8 H12 C32 N4 O16'
_cell_volume   1226.11432002
_cell_formula_units_Z   4
loop_
 _symmetry_equiv_pos_site_id
 _symmetry_equiv_pos_as_xyz
  1  'x, y, z'
loop_
 _atom_site_type_symbol
 _atom_site_label
 _atom_site_symmetry_multiplicity
 _atom_site_fract_x
 _atom_site_fract_y
 _atom_site_fract_z
 _atom_site_occupancy
 _atom_site_charge
  Li  Li1  1  0.546900  0.383300  0.053300  1.0  0.9325
  Li  Li2  1  0.534900  0.072600  0.387500  1.0  0.9105
  Li  Li3  1  0.234000  0.108500  0.516500  1.0  0.9344
  Li  Li4  1  0.554900  0.307400  0.305200  1.0  0.8898
  Li  Li5  1  0.453100  0.616700  0.946700  1.0  0.9352
  Li  Li6  1  0.465100  0.927400  0.612500  1.0  0.9112
  Li  Li7  1  0.766000  0.891500  0.483500  1.0  0.9331
  Li  Li8  1  0.445100  0.692600  0.694800  1.0  0.8892
  H  H9  1  0.097200  0.101900  0.338100  1.0  0.097
  H  H10  1  0.849500  0.330600  0.146300  1.0  0.1049
  H  H11  1  0.251600  0.403500  0.111900  1.0  0.0976
  H  H12  1  0.581800  0.610700  0.348600  1.0  0.1066
  H  H13  1  0.544300  0.773900  0.025500  1.0  0.0965
  H  H14  1  0.538200  0.970000  0.244000  1.0  0.0825
  H  H15  1  0.902800  0.898100  0.661900  1.0  0.0976
  H  H16  1  0.150500  0.669400  0.853700  1.0  0.1046
  H  H17  1  0.748400  0.596500  0.888100  1.0  0.0983
  H  H18  1  0.418200  0.389300  0.651400  1.0  0.1066
  H  H19  1  0.455700  0.226100  0.974500  1.0  0.0952
  H  H20  1  0.461800  0.030000  0.756000  1.0  0.0828
  C  C21  1  0.337130  0.218150  0.263090  1.0  0.7859
  C  C22  1  0.826720  0.127360  0.319920  1.0  0.7867
  C  C23  1  0.197880  0.247370  0.228660  1.0  -0.1834
  C  C24  1  0.084650  0.173600  0.282420  1.0  -0.0035
  C  C25  1  0.952460  0.205690  0.253920  1.0  -0.1536
  C  C26  1  0.936320  0.309520  0.167390  1.0  -0.025
  C  C27  1  0.050730  0.381820  0.112360  1.0  0.1501
  C  C28  1  0.178160  0.351860  0.145980  1.0  -0.0536
  C  C29  1  0.555520  0.799230  0.436100  1.0  0.7514
  C  C30  1  0.571820  0.551450  0.162840  1.0  0.7747
  C  C31  1  0.558160  0.791750  0.315720  1.0  -0.1705
  C  C32  1  0.569930  0.681290  0.291510  1.0  0.0104
  C  C33  1  0.564340  0.673930  0.183140  1.0  -0.163
  C  C34  1  0.547700  0.777970  0.098420  1.0  -0.0467
  C  C35  1  0.535800  0.888940  0.122080  1.0  0.1461
  C  C36  1  0.543300  0.895160  0.229720  1.0  -0.0758
  C  C37  1  0.662870  0.781850  0.736910  1.0  0.7872
  C  C38  1  0.173280  0.872640  0.680080  1.0  0.7853
  C  C39  1  0.802120  0.752630  0.771340  1.0  -0.1813
  C  C40  1  0.915350  0.826400  0.717580  1.0  -0.0032
  C  C41  1  0.047540  0.794310  0.746080  1.0  -0.1527
  C  C42  1  0.063680  0.690480  0.832610  1.0  -0.0249
  C  C43  1  0.949270  0.618180  0.887640  1.0  0.1505
  C  C44  1  0.821840  0.648140  0.854020  1.0  -0.0553
  C  C45  1  0.444480  0.200770  0.563900  1.0  0.7506
  C  C46  1  0.428180  0.448550  0.837160  1.0  0.7743
  C  C47  1  0.441840  0.208250  0.684280  1.0  -0.1709
  C  C48  1  0.430070  0.318710  0.708490  1.0  0.009
  C  C49  1  0.435660  0.326070  0.816860  1.0  -0.163
  C  C50  1  0.452300  0.222030  0.901580  1.0  -0.0493
  C  C51  1  0.464200  0.111060  0.877920  1.0  0.1458
  C  C52  1  0.456700  0.104840  0.770280  1.0  -0.0746
  N  N53  1  0.048820  0.491680  0.022760  1.0  -0.1548
  N  N54  1  0.512150  0.002620  0.044290  1.0  -0.1683
  N  N55  1  0.951180  0.508320  0.977240  1.0  -0.1563
  N  N56  1  0.487850  0.997380  0.955710  1.0  -0.164
  O  O57  1  0.348330  0.126950  0.345180  1.0  -0.8415
  O  O58  1  0.436270  0.287010  0.209270  1.0  -0.8511
  O  O59  1  0.703390  0.164650  0.301840  1.0  -0.8237
  O  O60  1  0.852780  0.031270  0.389320  1.0  -0.7295
  O  O61  1  0.572190  0.900860  0.444580  1.0  -0.9855
  O  O62  1  0.541960  0.546040  0.074080  1.0  -0.8935
  O  O63  1  0.604640  0.463190  0.237130  1.0  -0.6913
  O  O64  1  0.536740  0.709170  0.519700  1.0  -0.6473
  O  O65  1  0.651670  0.873050  0.654820  1.0  -0.8441
  O  O66  1  0.563730  0.712990  0.790730  1.0  -0.8488
  O  O67  1  0.296610  0.835350  0.698160  1.0  -0.8153
  O  O68  1  0.147220  0.968730  0.610680  1.0  -0.7341
  O  O69  1  0.427810  0.099140  0.555420  1.0  -0.9835
  O  O70  1  0.458040  0.453960  0.925920  1.0  -0.8912
  O  O71  1  0.395360  0.536810  0.762870  1.0  -0.6933
  O  O72  1  0.463260  0.290830  0.480300  1.0  -0.6466
