# generated using pymatgen
data_Zn2H7C18N3O8
_symmetry_space_group_name_H-M   'P 1'
_cell_length_a   26.11500000
_cell_length_b   26.43600000
_cell_length_c   26.34730000
_cell_angle_alpha   90.00000000
_cell_angle_beta   90.00000000
_cell_angle_gamma   90.00000000
_symmetry_Int_Tables_number   1
_chemical_formula_structural   Zn2H7C18N3O8
_chemical_formula_sum   'Zn32 H112 C288 N48 O128'
_cell_volume   18189.54727342
_cell_formula_units_Z   16
loop_
 _symmetry_equiv_pos_site_id
 _symmetry_equiv_pos_as_xyz
  1  'x, y, z'
loop_
 _atom_site_type_symbol
 _atom_site_label
 _atom_site_symmetry_multiplicity
 _atom_site_fract_x
 _atom_site_fract_y
 _atom_site_fract_z
 _atom_site_occupancy
 _atom_site_charge
  Zn  Zn1  1  0.246080  0.527300  0.753250  1.0  1.0597
  Zn  Zn2  1  0.290340  0.598610  0.850930  1.0  0.9625
  Zn  Zn3  1  0.905240  0.721180  0.166140  1.0  0.9683
  Zn  Zn4  1  0.971630  0.731360  0.763720  1.0  1.0564
  Zn  Zn5  1  0.253920  0.972700  0.753250  1.0  1.0618
  Zn  Zn6  1  0.209660  0.901390  0.850930  1.0  0.958
  Zn  Zn7  1  0.594760  0.778820  0.166140  1.0  0.9663
  Zn  Zn8  1  0.528370  0.768640  0.763720  1.0  1.0566
  Zn  Zn9  1  0.746080  0.472700  0.746750  1.0  1.0607
  Zn  Zn10  1  0.790340  0.401390  0.649070  1.0  0.9606
  Zn  Zn11  1  0.405240  0.278820  0.333860  1.0  0.9687
  Zn  Zn12  1  0.471630  0.268640  0.736280  1.0  1.0563
  Zn  Zn13  1  0.753920  0.027300  0.746750  1.0  1.0614
  Zn  Zn14  1  0.709660  0.098610  0.649070  1.0  0.9601
  Zn  Zn15  1  0.094760  0.221180  0.333860  1.0  0.9663
  Zn  Zn16  1  0.028370  0.231360  0.736280  1.0  1.0568
  Zn  Zn17  1  0.753920  0.472700  0.246750  1.0  1.062
  Zn  Zn18  1  0.709660  0.401390  0.149070  1.0  0.9608
  Zn  Zn19  1  0.094760  0.278820  0.833860  1.0  0.9676
  Zn  Zn20  1  0.028370  0.268640  0.236280  1.0  1.0567
  Zn  Zn21  1  0.746080  0.027300  0.246750  1.0  1.0597
  Zn  Zn22  1  0.790340  0.098610  0.149070  1.0  0.9602
  Zn  Zn23  1  0.405240  0.221180  0.833860  1.0  0.9671
  Zn  Zn24  1  0.471630  0.231360  0.236280  1.0  1.0566
  Zn  Zn25  1  0.253920  0.527300  0.253250  1.0  1.061
  Zn  Zn26  1  0.209660  0.598610  0.350930  1.0  0.9621
  Zn  Zn27  1  0.594760  0.721180  0.666140  1.0  0.9674
  Zn  Zn28  1  0.528370  0.731360  0.263720  1.0  1.0568
  Zn  Zn29  1  0.246080  0.972700  0.253250  1.0  1.0601
  Zn  Zn30  1  0.290340  0.901390  0.350930  1.0  0.9584
  Zn  Zn31  1  0.905240  0.778820  0.666140  1.0  0.9686
  Zn  Zn32  1  0.971630  0.768640  0.263720  1.0  1.0561
  H  H33  1  0.099600  0.632100  0.786600  1.0  0.1093
  H  H34  1  0.043900  0.649600  0.929000  1.0  0.1152
  H  H35  1  0.174400  0.568700  0.905500  1.0  0.1141
  H  H36  1  0.082400  0.660200  0.016800  1.0  0.1171
  H  H37  1  0.036500  0.652300  0.105100  1.0  0.1155
  H  H38  1  0.096900  0.661400  0.246400  1.0  0.1079
  H  H39  1  0.171500  0.583200  0.136800  1.0  0.1144
  H  H40  1  0.158200  0.388600  0.736000  1.0  0.1096
  H  H41  1  0.089800  0.317000  0.618400  1.0  0.1131
  H  H42  1  0.166400  0.448400  0.595200  1.0  0.1256
  H  H43  1  0.162000  0.422600  0.504200  1.0  0.118
  H  H44  1  0.148500  0.463800  0.419200  1.0  0.1127
  H  H45  1  0.135500  0.416100  0.273800  1.0  0.1097
  H  H46  1  0.076400  0.331100  0.387700  1.0  0.1098
  H  H47  1  0.400400  0.867900  0.786600  1.0  0.1088
  H  H48  1  0.456100  0.850400  0.929000  1.0  0.1147
  H  H49  1  0.325600  0.931300  0.905500  1.0  0.1147
  H  H50  1  0.417600  0.839800  0.016800  1.0  0.1174
  H  H51  1  0.463500  0.847700  0.105100  1.0  0.1152
  H  H52  1  0.403100  0.838600  0.246400  1.0  0.1083
  H  H53  1  0.328500  0.916800  0.136800  1.0  0.115
  H  H54  1  0.341800  0.111400  0.736000  1.0  0.1096
  H  H55  1  0.410200  0.183000  0.618400  1.0  0.113
  H  H56  1  0.333600  0.051600  0.595200  1.0  0.1151
  H  H57  1  0.338000  0.077400  0.504200  1.0  0.1182
  H  H58  1  0.351500  0.036200  0.419200  1.0  0.1132
  H  H59  1  0.364500  0.083900  0.273800  1.0  0.1098
  H  H60  1  0.423600  0.168900  0.387700  1.0  0.1104
  H  H61  1  0.599600  0.367900  0.713400  1.0  0.1086
  H  H62  1  0.543900  0.350400  0.571000  1.0  0.1153
  H  H63  1  0.674400  0.431300  0.594500  1.0  0.1143
  H  H64  1  0.582400  0.339800  0.483200  1.0  0.1171
  H  H65  1  0.536500  0.347700  0.394900  1.0  0.1154
  H  H66  1  0.596900  0.338600  0.253600  1.0  0.1081
  H  H67  1  0.671500  0.416800  0.363200  1.0  0.1151
  H  H68  1  0.658200  0.611400  0.764000  1.0  0.1093
  H  H69  1  0.589800  0.683000  0.881600  1.0  0.1136
  H  H70  1  0.666400  0.551600  0.904800  1.0  0.1262
  H  H71  1  0.662000  0.577400  0.995800  1.0  0.1176
  H  H72  1  0.648500  0.536200  0.080800  1.0  0.1134
  H  H73  1  0.635500  0.583900  0.226200  1.0  0.1099
  H  H74  1  0.576400  0.668900  0.112300  1.0  0.1105
  H  H75  1  0.900400  0.132100  0.713400  1.0  0.1085
  H  H76  1  0.956100  0.149600  0.571000  1.0  0.1153
  H  H77  1  0.825600  0.068700  0.594500  1.0  0.1148
  H  H78  1  0.917600  0.160200  0.483200  1.0  0.1168
  H  H79  1  0.963500  0.152300  0.394900  1.0  0.1149
  H  H80  1  0.903100  0.161400  0.253600  1.0  0.1084
  H  H81  1  0.828500  0.083200  0.363200  1.0  0.1151
  H  H82  1  0.841800  0.888600  0.764000  1.0  0.1093
  H  H83  1  0.910200  0.817000  0.881600  1.0  0.1132
  H  H84  1  0.833600  0.948400  0.904800  1.0  0.1152
  H  H85  1  0.838000  0.922600  0.995800  1.0  0.1182
  H  H86  1  0.851500  0.963800  0.080800  1.0  0.1133
  H  H87  1  0.864500  0.916100  0.226200  1.0  0.11
  H  H88  1  0.923600  0.831100  0.112300  1.0  0.1097
  H  H89  1  0.900400  0.367900  0.213400  1.0  0.1086
  H  H90  1  0.956100  0.350400  0.071000  1.0  0.115
  H  H91  1  0.825600  0.431300  0.094500  1.0  0.1148
  H  H92  1  0.917600  0.339800  0.983200  1.0  0.1172
  H  H93  1  0.963500  0.347700  0.894900  1.0  0.115
  H  H94  1  0.903100  0.338600  0.753600  1.0  0.1083
  H  H95  1  0.828500  0.416800  0.863200  1.0  0.1153
  H  H96  1  0.841800  0.611400  0.264000  1.0  0.1092
  H  H97  1  0.910200  0.683000  0.381600  1.0  0.1135
  H  H98  1  0.833600  0.551600  0.404800  1.0  0.1266
  H  H99  1  0.838000  0.577400  0.495800  1.0  0.118
  H  H100  1  0.851500  0.536200  0.580800  1.0  0.1135
  H  H101  1  0.864500  0.583900  0.726200  1.0  0.1101
  H  H102  1  0.923600  0.668900  0.612300  1.0  0.1102
  H  H103  1  0.599600  0.132100  0.213400  1.0  0.1086
  H  H104  1  0.543900  0.149600  0.071000  1.0  0.1153
  H  H105  1  0.674400  0.068700  0.094500  1.0  0.1142
  H  H106  1  0.582400  0.160200  0.983200  1.0  0.1169
  H  H107  1  0.536500  0.152300  0.894900  1.0  0.1152
  H  H108  1  0.596900  0.161400  0.753600  1.0  0.1081
  H  H109  1  0.671500  0.083200  0.863200  1.0  0.1148
  H  H110  1  0.658200  0.888600  0.264000  1.0  0.1094
  H  H111  1  0.589800  0.817000  0.381600  1.0  0.1133
  H  H112  1  0.666400  0.948400  0.404800  1.0  0.1149
  H  H113  1  0.662000  0.922600  0.495800  1.0  0.1179
  H  H114  1  0.648500  0.963800  0.580800  1.0  0.1132
  H  H115  1  0.635500  0.916100  0.726200  1.0  0.1099
  H  H116  1  0.576400  0.831100  0.612300  1.0  0.1098
  H  H117  1  0.400400  0.632100  0.286600  1.0  0.1089
  H  H118  1  0.456100  0.649600  0.429000  1.0  0.1147
  H  H119  1  0.325600  0.568700  0.405500  1.0  0.1149
  H  H120  1  0.417600  0.660200  0.516800  1.0  0.117
  H  H121  1  0.463500  0.652300  0.605100  1.0  0.1152
  H  H122  1  0.403100  0.661400  0.746400  1.0  0.1082
  H  H123  1  0.328500  0.583200  0.636800  1.0  0.1148
  H  H124  1  0.341800  0.388600  0.236000  1.0  0.1096
  H  H125  1  0.410200  0.317000  0.118400  1.0  0.1129
  H  H126  1  0.333600  0.448400  0.095200  1.0  0.1261
  H  H127  1  0.338000  0.422600  0.004200  1.0  0.1182
  H  H128  1  0.351500  0.463800  0.919200  1.0  0.1128
  H  H129  1  0.364500  0.416100  0.773800  1.0  0.1099
  H  H130  1  0.423600  0.331100  0.887700  1.0  0.1099
  H  H131  1  0.099600  0.867900  0.286600  1.0  0.1091
  H  H132  1  0.043900  0.850400  0.429000  1.0  0.1154
  H  H133  1  0.174400  0.931300  0.405500  1.0  0.1141
  H  H134  1  0.082400  0.839800  0.516800  1.0  0.1173
  H  H135  1  0.036500  0.847700  0.605100  1.0  0.1155
  H  H136  1  0.096900  0.838600  0.746400  1.0  0.1081
  H  H137  1  0.171500  0.916800  0.636800  1.0  0.1148
  H  H138  1  0.158200  0.111400  0.236000  1.0  0.1097
  H  H139  1  0.089800  0.183000  0.118400  1.0  0.1134
  H  H140  1  0.166400  0.051600  0.095200  1.0  0.115
  H  H141  1  0.162000  0.077400  0.004200  1.0  0.118
  H  H142  1  0.148500  0.036200  0.919200  1.0  0.1129
  H  H143  1  0.135500  0.083900  0.773800  1.0  0.1097
  H  H144  1  0.076400  0.168900  0.887700  1.0  0.1106
  C  C145  1  0.181070  0.576590  0.804300  1.0  0.6574
  C  C146  1  0.142740  0.597890  0.841030  1.0  -0.15
  C  C147  1  0.102310  0.626460  0.822110  1.0  0.0155
  C  C148  1  0.065940  0.646840  0.854460  1.0  -0.1698
  C  C149  1  0.023910  0.679460  0.834750  1.0  0.686
  C  C150  1  0.069020  0.636670  0.906440  1.0  -0.1112
  C  C151  1  0.109160  0.607600  0.924700  1.0  0.1065
  C  C152  1  0.146810  0.588110  0.892490  1.0  -0.0237
  C  C153  1  0.097800  0.627720  0.018410  1.0  -0.0355
  C  C154  1  0.109980  0.601070  0.060420  1.0  0.1893
  C  C155  1  0.105210  0.616390  0.112790  1.0  -0.016
  C  C156  1  0.063260  0.644670  0.128310  1.0  -0.1155
  C  C157  1  0.060750  0.661750  0.178150  1.0  -0.1569
  C  C158  1  0.015140  0.692230  0.194110  1.0  0.7109
  C  C159  1  0.098720  0.649420  0.212460  1.0  0.0258
  C  C160  1  0.139910  0.619290  0.197000  1.0  -0.146
  C  C161  1  0.180940  0.603170  0.233690  1.0  0.726
  C  C162  1  0.143290  0.603240  0.147380  1.0  -0.0357
  C  C163  1  0.199030  0.467470  0.688420  1.0  0.6689
  C  C164  1  0.167530  0.423980  0.668320  1.0  -0.1616
  C  C165  1  0.150570  0.386570  0.700810  1.0  -0.0007
  C  C166  1  0.122430  0.346030  0.682430  1.0  -0.1768
  C  C167  1  0.102050  0.306060  0.716980  1.0  0.7268
  C  C168  1  0.109390  0.344420  0.631330  1.0  -0.0052
  C  C169  1  0.125180  0.383280  0.599070  1.0  -0.0487
  C  C170  1  0.154810  0.422540  0.617420  1.0  -0.0731
  C  C171  1  0.109910  0.381460  0.546340  1.0  0.1021
  C  C172  1  0.132310  0.401940  0.504970  1.0  -0.0104
  C  C173  1  0.111990  0.396040  0.411820  1.0  0.1162
  C  C174  1  0.137160  0.439330  0.395340  1.0  -0.0707
  C  C175  1  0.145700  0.446610  0.343800  1.0  -0.1597
  C  C176  1  0.174450  0.492740  0.326240  1.0  0.7231
  C  C177  1  0.128800  0.411370  0.308890  1.0  0.0086
  C  C178  1  0.101600  0.368420  0.325240  1.0  -0.1438
  C  C179  1  0.081920  0.332280  0.287030  1.0  0.6586
  C  C180  1  0.093930  0.360530  0.376420  1.0  0.0024
  C  C181  1  0.318930  0.923410  0.804300  1.0  0.6582
  C  C182  1  0.357260  0.902110  0.841030  1.0  -0.15
  C  C183  1  0.397690  0.873540  0.822110  1.0  0.0151
  C  C184  1  0.434060  0.853160  0.854460  1.0  -0.1701
  C  C185  1  0.476090  0.820540  0.834750  1.0  0.6862
  C  C186  1  0.430980  0.863330  0.906440  1.0  -0.1108
  C  C187  1  0.390840  0.892400  0.924700  1.0  0.1065
  C  C188  1  0.353190  0.911890  0.892490  1.0  -0.0238
  C  C189  1  0.402200  0.872280  0.018410  1.0  -0.0349
  C  C190  1  0.390020  0.898930  0.060420  1.0  0.1886
  C  C191  1  0.394790  0.883610  0.112790  1.0  -0.0159
  C  C192  1  0.436740  0.855330  0.128310  1.0  -0.1159
  C  C193  1  0.439250  0.838250  0.178150  1.0  -0.1569
  C  C194  1  0.484860  0.807770  0.194110  1.0  0.711
  C  C195  1  0.401280  0.850580  0.212460  1.0  0.0264
  C  C196  1  0.360090  0.880710  0.197000  1.0  -0.1468
  C  C197  1  0.319060  0.896830  0.233690  1.0  0.7256
  C  C198  1  0.356710  0.896760  0.147380  1.0  -0.0339
  C  C199  1  0.300970  0.032530  0.688420  1.0  0.6683
  C  C200  1  0.332470  0.076020  0.668320  1.0  -0.1609
  C  C201  1  0.349430  0.113430  0.700810  1.0  -0.0028
  C  C202  1  0.377570  0.153970  0.682430  1.0  -0.1765
  C  C203  1  0.397950  0.193940  0.716980  1.0  0.7257
  C  C204  1  0.390610  0.155580  0.631330  1.0  -0.0054
  C  C205  1  0.374820  0.116720  0.599070  1.0  -0.0484
  C  C206  1  0.345190  0.077460  0.617420  1.0  -0.0727
  C  C207  1  0.390090  0.118540  0.546340  1.0  0.1027
  C  C208  1  0.367690  0.098060  0.504970  1.0  -0.0125
  C  C209  1  0.388010  0.103960  0.411820  1.0  0.1162
  C  C210  1  0.362840  0.060670  0.395340  1.0  -0.0696
  C  C211  1  0.354300  0.053390  0.343800  1.0  -0.16
  C  C212  1  0.325550  0.007260  0.326240  1.0  0.7235
  C  C213  1  0.371200  0.088630  0.308890  1.0  0.0091
  C  C214  1  0.398400  0.131580  0.325240  1.0  -0.1435
  C  C215  1  0.418080  0.167720  0.287030  1.0  0.6589
  C  C216  1  0.406070  0.139470  0.376420  1.0  0.0024
  C  C217  1  0.681070  0.423410  0.695700  1.0  0.6569
  C  C218  1  0.642740  0.402110  0.658970  1.0  -0.1505
  C  C219  1  0.602310  0.373540  0.677890  1.0  0.0148
  C  C220  1  0.565940  0.353160  0.645540  1.0  -0.17
  C  C221  1  0.523910  0.320540  0.665250  1.0  0.6863
  C  C222  1  0.569020  0.363330  0.593560  1.0  -0.1114
  C  C223  1  0.609160  0.392400  0.575300  1.0  0.1062
  C  C224  1  0.646810  0.411890  0.607510  1.0  -0.023
  C  C225  1  0.597800  0.372280  0.481590  1.0  -0.035
  C  C226  1  0.609980  0.398930  0.439580  1.0  0.1878
  C  C227  1  0.605210  0.383610  0.387210  1.0  -0.0162
  C  C228  1  0.563260  0.355330  0.371690  1.0  -0.1162
  C  C229  1  0.560750  0.338250  0.321850  1.0  -0.1568
  C  C230  1  0.515140  0.307770  0.305890  1.0  0.7104
  C  C231  1  0.598720  0.350580  0.287540  1.0  0.0273
  C  C232  1  0.639910  0.380710  0.303000  1.0  -0.1456
  C  C233  1  0.680940  0.396830  0.266310  1.0  0.726
  C  C234  1  0.643290  0.396760  0.352620  1.0  -0.0356
  C  C235  1  0.699030  0.532530  0.811580  1.0  0.6691
  C  C236  1  0.667530  0.576020  0.831680  1.0  -0.1615
  C  C237  1  0.650570  0.613430  0.799190  1.0  -0.0003
  C  C238  1  0.622430  0.653970  0.817570  1.0  -0.176
  C  C239  1  0.602050  0.693940  0.783020  1.0  0.7266
  C  C240  1  0.609390  0.655580  0.868670  1.0  -0.0049
  C  C241  1  0.625180  0.616720  0.900930  1.0  -0.0485
  C  C242  1  0.654810  0.577460  0.882580  1.0  -0.0727
  C  C243  1  0.609910  0.618540  0.953660  1.0  0.1024
  C  C244  1  0.632310  0.598060  0.995030  1.0  -0.0108
  C  C245  1  0.611990  0.603960  0.088180  1.0  0.1166
  C  C246  1  0.637160  0.560670  0.104660  1.0  -0.0692
  C  C247  1  0.645700  0.553390  0.156200  1.0  -0.16
  C  C248  1  0.674450  0.507260  0.173760  1.0  0.7234
  C  C249  1  0.628800  0.588630  0.191110  1.0  0.0095
  C  C250  1  0.601600  0.631580  0.174760  1.0  -0.143
  C  C251  1  0.581920  0.667720  0.212970  1.0  0.6591
  C  C252  1  0.593930  0.639470  0.123580  1.0  0.0026
  C  C253  1  0.818930  0.076590  0.695700  1.0  0.6576
  C  C254  1  0.857260  0.097890  0.658970  1.0  -0.1506
  C  C255  1  0.897690  0.126460  0.677890  1.0  0.0146
  C  C256  1  0.934060  0.146840  0.645540  1.0  -0.1698
  C  C257  1  0.976090  0.179460  0.665250  1.0  0.6864
  C  C258  1  0.930980  0.136670  0.593560  1.0  -0.111
  C  C259  1  0.890840  0.107600  0.575300  1.0  0.1062
  C  C260  1  0.853190  0.088110  0.607510  1.0  -0.024
  C  C261  1  0.902200  0.127720  0.481590  1.0  -0.0354
  C  C262  1  0.890020  0.101070  0.439580  1.0  0.1879
  C  C263  1  0.894790  0.116390  0.387210  1.0  -0.0162
  C  C264  1  0.936740  0.144670  0.371690  1.0  -0.1161
  C  C265  1  0.939250  0.161750  0.321850  1.0  -0.1572
  C  C266  1  0.984860  0.192230  0.305890  1.0  0.7114
  C  C267  1  0.901280  0.149420  0.287540  1.0  0.0262
  C  C268  1  0.860090  0.119290  0.303000  1.0  -0.1472
  C  C269  1  0.819060  0.103170  0.266310  1.0  0.7262
  C  C270  1  0.856710  0.103240  0.352620  1.0  -0.0341
  C  C271  1  0.800970  0.967470  0.811580  1.0  0.6679
  C  C272  1  0.832470  0.923980  0.831680  1.0  -0.1605
  C  C273  1  0.849430  0.886570  0.799190  1.0  -0.0009
  C  C274  1  0.877570  0.846030  0.817570  1.0  -0.1771
  C  C275  1  0.897950  0.806060  0.783020  1.0  0.7255
  C  C276  1  0.890610  0.844420  0.868670  1.0  -0.0053
  C  C277  1  0.874820  0.883280  0.900930  1.0  -0.0483
  C  C278  1  0.845190  0.922540  0.882580  1.0  -0.0736
  C  C279  1  0.890090  0.881460  0.953660  1.0  0.1028
  C  C280  1  0.867690  0.901940  0.995030  1.0  -0.012
  C  C281  1  0.888010  0.896040  0.088180  1.0  0.1161
  C  C282  1  0.862840  0.939330  0.104660  1.0  -0.071
  C  C283  1  0.854300  0.946610  0.156200  1.0  -0.1595
  C  C284  1  0.825550  0.992740  0.173760  1.0  0.7235
  C  C285  1  0.871200  0.911370  0.191110  1.0  0.0088
  C  C286  1  0.898400  0.868420  0.174760  1.0  -0.143
  C  C287  1  0.918080  0.832280  0.212970  1.0  0.6586
  C  C288  1  0.906070  0.860530  0.123580  1.0  0.0024
  C  C289  1  0.818930  0.423410  0.195700  1.0  0.6578
  C  C290  1  0.857260  0.402110  0.158970  1.0  -0.1506
  C  C291  1  0.897690  0.373540  0.177890  1.0  0.0147
  C  C292  1  0.934060  0.353160  0.145540  1.0  -0.1699
  C  C293  1  0.976090  0.320540  0.165250  1.0  0.6862
  C  C294  1  0.930980  0.363330  0.093560  1.0  -0.1108
  C  C295  1  0.890840  0.392400  0.075300  1.0  0.1062
  C  C296  1  0.853190  0.411890  0.107510  1.0  -0.0234
  C  C297  1  0.902200  0.372280  0.981590  1.0  -0.0349
  C  C298  1  0.890020  0.398930  0.939580  1.0  0.1876
  C  C299  1  0.894790  0.383610  0.887210  1.0  -0.0162
  C  C300  1  0.936740  0.355330  0.871690  1.0  -0.1161
  C  C301  1  0.939250  0.338250  0.821850  1.0  -0.1567
  C  C302  1  0.984860  0.307770  0.805890  1.0  0.711
  C  C303  1  0.901280  0.350580  0.787540  1.0  0.027
  C  C304  1  0.860090  0.380710  0.803000  1.0  -0.1471
  C  C305  1  0.819060  0.396830  0.766310  1.0  0.7258
  C  C306  1  0.856710  0.396760  0.852620  1.0  -0.0339
  C  C307  1  0.800970  0.532530  0.311580  1.0  0.6682
  C  C308  1  0.832470  0.576020  0.331680  1.0  -0.1609
  C  C309  1  0.849430  0.613430  0.299190  1.0  -0.001
  C  C310  1  0.877570  0.653970  0.317570  1.0  -0.1762
  C  C311  1  0.897950  0.693940  0.283020  1.0  0.7259
  C  C312  1  0.890610  0.655580  0.368670  1.0  -0.0056
  C  C313  1  0.874820  0.616720  0.400930  1.0  -0.0483
  C  C314  1  0.845190  0.577460  0.382580  1.0  -0.0732
  C  C315  1  0.890090  0.618540  0.453660  1.0  0.1028
  C  C316  1  0.867690  0.598060  0.495030  1.0  -0.0125
  C  C317  1  0.888010  0.603960  0.588180  1.0  0.1163
  C  C318  1  0.862840  0.560670  0.604660  1.0  -0.0697
  C  C319  1  0.854300  0.553390  0.656200  1.0  -0.1599
  C  C320  1  0.825550  0.507260  0.673760  1.0  0.7236
  C  C321  1  0.871200  0.588630  0.691110  1.0  0.0089
  C  C322  1  0.898400  0.631580  0.674760  1.0  -0.143
  C  C323  1  0.918080  0.667720  0.712970  1.0  0.659
  C  C324  1  0.906070  0.639470  0.623580  1.0  0.0028
  C  C325  1  0.681070  0.076590  0.195700  1.0  0.657
  C  C326  1  0.642740  0.097890  0.158970  1.0  -0.1505
  C  C327  1  0.602310  0.126460  0.177890  1.0  0.0146
  C  C328  1  0.565940  0.146840  0.145540  1.0  -0.1697
  C  C329  1  0.523910  0.179460  0.165250  1.0  0.6861
  C  C330  1  0.569020  0.136670  0.093560  1.0  -0.1117
  C  C331  1  0.609160  0.107600  0.075300  1.0  0.1062
  C  C332  1  0.646810  0.088110  0.107510  1.0  -0.0235
  C  C333  1  0.597800  0.127720  0.981590  1.0  -0.0357
  C  C334  1  0.609980  0.101070  0.939580  1.0  0.1881
  C  C335  1  0.605210  0.116390  0.887210  1.0  -0.0161
  C  C336  1  0.563260  0.144670  0.871690  1.0  -0.116
  C  C337  1  0.560750  0.161750  0.821850  1.0  -0.157
  C  C338  1  0.515140  0.192230  0.805890  1.0  0.7108
  C  C339  1  0.598720  0.149420  0.787540  1.0  0.0263
  C  C340  1  0.639910  0.119290  0.803000  1.0  -0.1458
  C  C341  1  0.680940  0.103170  0.766310  1.0  0.7264
  C  C342  1  0.643290  0.103240  0.852620  1.0  -0.0358
  C  C343  1  0.699030  0.967470  0.311580  1.0  0.6691
  C  C344  1  0.667530  0.923980  0.331680  1.0  -0.1614
  C  C345  1  0.650570  0.886570  0.299190  1.0  -0.0002
  C  C346  1  0.622430  0.846030  0.317570  1.0  -0.1769
  C  C347  1  0.602050  0.806060  0.283020  1.0  0.7266
  C  C348  1  0.609390  0.844420  0.368670  1.0  -0.0047
  C  C349  1  0.625180  0.883280  0.400930  1.0  -0.0486
  C  C350  1  0.654810  0.922540  0.382580  1.0  -0.0733
  C  C351  1  0.609910  0.881460  0.453660  1.0  0.1023
  C  C352  1  0.632310  0.901940  0.495030  1.0  -0.0105
  C  C353  1  0.611990  0.896040  0.588180  1.0  0.1163
  C  C354  1  0.637160  0.939330  0.604660  1.0  -0.0705
  C  C355  1  0.645700  0.946610  0.656200  1.0  -0.1598
  C  C356  1  0.674450  0.992740  0.673760  1.0  0.7232
  C  C357  1  0.628800  0.911370  0.691110  1.0  0.0094
  C  C358  1  0.601600  0.868420  0.674760  1.0  -0.143
  C  C359  1  0.581920  0.832280  0.712970  1.0  0.6587
  C  C360  1  0.593930  0.860530  0.623580  1.0  0.0017
  C  C361  1  0.318930  0.576590  0.304300  1.0  0.6582
  C  C362  1  0.357260  0.597890  0.341030  1.0  -0.1502
  C  C363  1  0.397690  0.626460  0.322110  1.0  0.015
  C  C364  1  0.434060  0.646840  0.354460  1.0  -0.1697
  C  C365  1  0.476090  0.679460  0.334750  1.0  0.6865
  C  C366  1  0.430980  0.636670  0.406440  1.0  -0.1108
  C  C367  1  0.390840  0.607600  0.424700  1.0  0.1065
  C  C368  1  0.353190  0.588110  0.392490  1.0  -0.024
  C  C369  1  0.402200  0.627720  0.518410  1.0  -0.0353
  C  C370  1  0.390020  0.601070  0.560420  1.0  0.1891
  C  C371  1  0.394790  0.616390  0.612790  1.0  -0.0161
  C  C372  1  0.436740  0.644670  0.628310  1.0  -0.1157
  C  C373  1  0.439250  0.661750  0.678150  1.0  -0.1573
  C  C374  1  0.484860  0.692230  0.694110  1.0  0.7114
  C  C375  1  0.401280  0.649420  0.712460  1.0  0.0261
  C  C376  1  0.360090  0.619290  0.697000  1.0  -0.1467
  C  C377  1  0.319060  0.603170  0.733690  1.0  0.7253
  C  C378  1  0.356710  0.603240  0.647380  1.0  -0.0342
  C  C379  1  0.300970  0.467470  0.188420  1.0  0.6677
  C  C380  1  0.332470  0.423980  0.168320  1.0  -0.1607
  C  C381  1  0.349430  0.386570  0.200810  1.0  -0.0027
  C  C382  1  0.377570  0.346030  0.182430  1.0  -0.177
  C  C383  1  0.397950  0.306060  0.216980  1.0  0.7256
  C  C384  1  0.390610  0.344420  0.131330  1.0  -0.0057
  C  C385  1  0.374820  0.383280  0.099070  1.0  -0.0485
  C  C386  1  0.345190  0.422540  0.117420  1.0  -0.0729
  C  C387  1  0.390090  0.381460  0.046340  1.0  0.1027
  C  C388  1  0.367690  0.401940  0.004970  1.0  -0.012
  C  C389  1  0.388010  0.396040  0.911820  1.0  0.1161
  C  C390  1  0.362840  0.439330  0.895340  1.0  -0.0714
  C  C391  1  0.354300  0.446610  0.843800  1.0  -0.1594
  C  C392  1  0.325550  0.492740  0.826240  1.0  0.7233
  C  C393  1  0.371200  0.411370  0.808890  1.0  0.0088
  C  C394  1  0.398400  0.368420  0.825240  1.0  -0.1437
  C  C395  1  0.418080  0.332280  0.787030  1.0  0.6585
  C  C396  1  0.406070  0.360530  0.876420  1.0  0.003
  C  C397  1  0.181070  0.923410  0.304300  1.0  0.6573
  C  C398  1  0.142740  0.902110  0.341030  1.0  -0.1499
  C  C399  1  0.102310  0.873540  0.322110  1.0  0.0156
  C  C400  1  0.065940  0.853160  0.354460  1.0  -0.1703
  C  C401  1  0.023910  0.820540  0.334750  1.0  0.6862
  C  C402  1  0.069020  0.863330  0.406440  1.0  -0.1109
  C  C403  1  0.109160  0.892400  0.424700  1.0  0.1065
  C  C404  1  0.146810  0.911890  0.392490  1.0  -0.0235
  C  C405  1  0.097800  0.872280  0.518410  1.0  -0.0351
  C  C406  1  0.109980  0.898930  0.560420  1.0  0.1889
  C  C407  1  0.105210  0.883610  0.612790  1.0  -0.0159
  C  C408  1  0.063260  0.855330  0.628310  1.0  -0.1157
  C  C409  1  0.060750  0.838250  0.678150  1.0  -0.1568
  C  C410  1  0.015140  0.807770  0.694110  1.0  0.7105
  C  C411  1  0.098720  0.850580  0.712460  1.0  0.0262
  C  C412  1  0.139910  0.880710  0.697000  1.0  -0.146
  C  C413  1  0.180940  0.896830  0.733690  1.0  0.7261
  C  C414  1  0.143290  0.896760  0.647380  1.0  -0.0353
  C  C415  1  0.199030  0.032530  0.188420  1.0  0.6691
  C  C416  1  0.167530  0.076020  0.168320  1.0  -0.1615
  C  C417  1  0.150570  0.113430  0.200810  1.0  -0.0007
  C  C418  1  0.122430  0.153970  0.182430  1.0  -0.1762
  C  C419  1  0.102050  0.193940  0.216980  1.0  0.7266
  C  C420  1  0.109390  0.155580  0.131330  1.0  -0.0048
  C  C421  1  0.125180  0.116720  0.099070  1.0  -0.0486
  C  C422  1  0.154810  0.077460  0.117420  1.0  -0.0727
  C  C423  1  0.109910  0.118540  0.046340  1.0  0.1022
  C  C424  1  0.132310  0.098060  0.004970  1.0  -0.0108
  C  C425  1  0.111990  0.103960  0.911820  1.0  0.1165
  C  C426  1  0.137160  0.060670  0.895340  1.0  -0.0689
  C  C427  1  0.145700  0.053390  0.843800  1.0  -0.16
  C  C428  1  0.174450  0.007260  0.826240  1.0  0.7232
  C  C429  1  0.128800  0.088630  0.808890  1.0  0.0089
  C  C430  1  0.101600  0.131580  0.825240  1.0  -0.1435
  C  C431  1  0.081920  0.167720  0.787030  1.0  0.6588
  C  C432  1  0.093930  0.139470  0.876420  1.0  0.0024
  N  N433  1  0.112470  0.597630  0.978750  1.0  0.1216
  N  N434  1  0.131980  0.554010  0.997090  1.0  -0.1593
  N  N435  1  0.130580  0.556140  0.046720  1.0  -0.1328
  N  N436  1  0.065750  0.358310  0.531590  1.0  -0.1385
  N  N437  1  0.062230  0.361500  0.482150  1.0  -0.2279
  N  N438  1  0.104210  0.387230  0.465400  1.0  0.1333
  N  N439  1  0.387530  0.902370  0.978750  1.0  0.1208
  N  N440  1  0.368020  0.945990  0.997090  1.0  -0.1593
  N  N441  1  0.369420  0.943860  0.046720  1.0  -0.1347
  N  N442  1  0.434250  0.141690  0.531590  1.0  -0.144
  N  N443  1  0.437770  0.138500  0.482150  1.0  -0.2284
  N  N444  1  0.395790  0.112770  0.465400  1.0  0.1329
  N  N445  1  0.612470  0.402370  0.521250  1.0  0.1213
  N  N446  1  0.631980  0.445990  0.502910  1.0  -0.1573
  N  N447  1  0.630580  0.443860  0.453280  1.0  -0.1347
  N  N448  1  0.565750  0.641690  0.968410  1.0  -0.1398
  N  N449  1  0.562230  0.638500  0.017850  1.0  -0.2265
  N  N450  1  0.604210  0.612770  0.034600  1.0  0.1334
  N  N451  1  0.887530  0.097630  0.521250  1.0  0.1216
  N  N452  1  0.868020  0.054010  0.502910  1.0  -0.1591
  N  N453  1  0.869420  0.056140  0.453280  1.0  -0.1345
  N  N454  1  0.934250  0.858310  0.968410  1.0  -0.1418
  N  N455  1  0.937770  0.861500  0.017850  1.0  -0.2279
  N  N456  1  0.895790  0.887230  0.034600  1.0  0.1336
  N  N457  1  0.887530  0.402370  0.021250  1.0  0.1211
  N  N458  1  0.868020  0.445990  0.002910  1.0  -0.1578
  N  N459  1  0.869420  0.443860  0.953280  1.0  -0.136
  N  N460  1  0.934250  0.641690  0.468410  1.0  -0.1445
  N  N461  1  0.937770  0.638500  0.517850  1.0  -0.2283
  N  N462  1  0.895790  0.612770  0.534600  1.0  0.1332
  N  N463  1  0.612470  0.097630  0.021250  1.0  0.1219
  N  N464  1  0.631980  0.054010  0.002910  1.0  -0.1588
  N  N465  1  0.630580  0.056140  0.953280  1.0  -0.1335
  N  N466  1  0.565750  0.858310  0.468410  1.0  -0.1396
  N  N467  1  0.562230  0.861500  0.517850  1.0  -0.2276
  N  N468  1  0.604210  0.887230  0.534600  1.0  0.1338
  N  N469  1  0.387530  0.597630  0.478750  1.0  0.1213
  N  N470  1  0.368020  0.554010  0.497090  1.0  -0.1598
  N  N471  1  0.369420  0.556140  0.546720  1.0  -0.1339
  N  N472  1  0.434250  0.358310  0.031590  1.0  -0.1412
  N  N473  1  0.437770  0.361500  0.982150  1.0  -0.2282
  N  N474  1  0.395790  0.387230  0.965400  1.0  0.1332
  N  N475  1  0.112470  0.902370  0.478750  1.0  0.121
  N  N476  1  0.131980  0.945990  0.497090  1.0  -0.1586
  N  N477  1  0.130580  0.943860  0.546720  1.0  -0.1335
  N  N478  1  0.065750  0.141690  0.031590  1.0  -0.1394
  N  N479  1  0.062230  0.138500  0.982150  1.0  -0.2273
  N  N480  1  0.104210  0.112770  0.965400  1.0  0.133
  O  O481  1  0.222910  0.557950  0.821910  1.0  -0.6337
  O  O482  1  0.171230  0.575160  0.758580  1.0  -0.552
  O  O483  1  0.025810  0.688340  0.787120  1.0  -0.5872
  O  O484  1  0.990670  0.695440  0.863280  1.0  -0.4647
  O  O485  1  0.215960  0.576830  0.214600  1.0  -0.593
  O  O486  1  0.177420  0.616070  0.279160  1.0  -0.6512
  O  O487  1  0.017880  0.713760  0.236540  1.0  -0.5893
  O  O488  1  0.977810  0.693620  0.164160  1.0  -0.651
  O  O489  1  0.202100  0.469800  0.737100  1.0  -0.5848
  O  O490  1  0.225100  0.496000  0.660600  1.0  -0.5462
  O  O491  1  0.113370  0.308280  0.762430  1.0  -0.6645
  O  O492  1  0.074240  0.272870  0.696180  1.0  -0.5811
  O  O493  1  0.176940  0.529230  0.356450  1.0  -0.6397
  O  O494  1  0.193390  0.489930  0.282590  1.0  -0.5856
  O  O495  1  0.085470  0.341030  0.241570  1.0  -0.5647
  O  O496  1  0.059870  0.291590  0.303330  1.0  -0.6548
  O  O497  1  0.277090  0.942050  0.821910  1.0  -0.633
  O  O498  1  0.328770  0.924840  0.758580  1.0  -0.5522
  O  O499  1  0.474190  0.811660  0.787120  1.0  -0.5884
  O  O500  1  0.509330  0.804560  0.863280  1.0  -0.4633
  O  O501  1  0.284040  0.923170  0.214600  1.0  -0.5941
  O  O502  1  0.322580  0.883930  0.279160  1.0  -0.6515
  O  O503  1  0.482120  0.786240  0.236540  1.0  -0.5891
  O  O504  1  0.522190  0.806380  0.164160  1.0  -0.6514
  O  O505  1  0.297900  0.030200  0.737100  1.0  -0.5834
  O  O506  1  0.274900  0.004000  0.660600  1.0  -0.5403
  O  O507  1  0.386630  0.191720  0.762430  1.0  -0.6659
  O  O508  1  0.425760  0.227130  0.696180  1.0  -0.5807
  O  O509  1  0.323060  0.970770  0.356450  1.0  -0.64
  O  O510  1  0.306610  0.010070  0.282590  1.0  -0.5865
  O  O511  1  0.414530  0.158970  0.241570  1.0  -0.564
  O  O512  1  0.440130  0.208410  0.303330  1.0  -0.6546
  O  O513  1  0.722910  0.442050  0.678090  1.0  -0.6337
  O  O514  1  0.671230  0.424840  0.741420  1.0  -0.5498
  O  O515  1  0.525810  0.311660  0.712880  1.0  -0.5871
  O  O516  1  0.490670  0.304560  0.636720  1.0  -0.4636
  O  O517  1  0.715960  0.423170  0.285400  1.0  -0.593
  O  O518  1  0.677420  0.383930  0.220840  1.0  -0.6521
  O  O519  1  0.517880  0.286240  0.263460  1.0  -0.5874
  O  O520  1  0.477810  0.306380  0.335840  1.0  -0.6515
  O  O521  1  0.702100  0.530200  0.762900  1.0  -0.5857
  O  O522  1  0.725100  0.504000  0.839400  1.0  -0.5438
  O  O523  1  0.613370  0.691720  0.737570  1.0  -0.664
  O  O524  1  0.574240  0.727130  0.803820  1.0  -0.5812
  O  O525  1  0.676940  0.470770  0.143550  1.0  -0.6389
  O  O526  1  0.693390  0.510070  0.217410  1.0  -0.5861
  O  O527  1  0.585470  0.658970  0.258430  1.0  -0.5645
  O  O528  1  0.559870  0.708410  0.196670  1.0  -0.6557
  O  O529  1  0.777090  0.057950  0.678090  1.0  -0.633
  O  O530  1  0.828770  0.075160  0.741420  1.0  -0.549
  O  O531  1  0.974190  0.188340  0.712880  1.0  -0.5884
  O  O532  1  0.009330  0.195440  0.636720  1.0  -0.4616
  O  O533  1  0.784040  0.076830  0.285400  1.0  -0.5945
  O  O534  1  0.822580  0.116070  0.220840  1.0  -0.6532
  O  O535  1  0.982120  0.213760  0.263460  1.0  -0.5877
  O  O536  1  0.022190  0.193620  0.335840  1.0  -0.6503
  O  O537  1  0.797900  0.969800  0.762900  1.0  -0.5846
  O  O538  1  0.774900  0.996000  0.839400  1.0  -0.5398
  O  O539  1  0.886630  0.808280  0.737570  1.0  -0.6657
  O  O540  1  0.925760  0.772870  0.803820  1.0  -0.5821
  O  O541  1  0.823060  0.029230  0.143550  1.0  -0.6398
  O  O542  1  0.806610  0.989930  0.217410  1.0  -0.5863
  O  O543  1  0.914530  0.841030  0.258430  1.0  -0.5642
  O  O544  1  0.940130  0.791590  0.196670  1.0  -0.6551
  O  O545  1  0.777090  0.442050  0.178090  1.0  -0.6326
  O  O546  1  0.828770  0.424840  0.241420  1.0  -0.5491
  O  O547  1  0.974190  0.311660  0.212880  1.0  -0.588
  O  O548  1  0.009330  0.304560  0.136720  1.0  -0.4637
  O  O549  1  0.784040  0.423170  0.785400  1.0  -0.5941
  O  O550  1  0.822580  0.383930  0.720840  1.0  -0.6514
  O  O551  1  0.982120  0.286240  0.763460  1.0  -0.5875
  O  O552  1  0.022190  0.306380  0.835840  1.0  -0.6507
  O  O553  1  0.797900  0.530200  0.262900  1.0  -0.5846
  O  O554  1  0.774900  0.504000  0.339400  1.0  -0.5434
  O  O555  1  0.886630  0.691720  0.237570  1.0  -0.6661
  O  O556  1  0.925760  0.727130  0.303820  1.0  -0.5816
  O  O557  1  0.823060  0.470770  0.643550  1.0  -0.6383
  O  O558  1  0.806610  0.510070  0.717410  1.0  -0.5867
  O  O559  1  0.914530  0.658970  0.758430  1.0  -0.5645
  O  O560  1  0.940130  0.708410  0.696670  1.0  -0.6553
  O  O561  1  0.722910  0.057950  0.178090  1.0  -0.6337
  O  O562  1  0.671230  0.075160  0.241420  1.0  -0.5498
  O  O563  1  0.525810  0.188340  0.212880  1.0  -0.5875
  O  O564  1  0.490670  0.195440  0.136720  1.0  -0.4668
  O  O565  1  0.715960  0.076830  0.785400  1.0  -0.593
  O  O566  1  0.677420  0.116070  0.720840  1.0  -0.6539
  O  O567  1  0.517880  0.213760  0.763460  1.0  -0.5876
  O  O568  1  0.477810  0.193620  0.835840  1.0  -0.6513
  O  O569  1  0.702100  0.969800  0.262900  1.0  -0.5858
  O  O570  1  0.725100  0.996000  0.339400  1.0  -0.5407
  O  O571  1  0.613370  0.808280  0.237570  1.0  -0.6638
  O  O572  1  0.574240  0.772870  0.303820  1.0  -0.5822
  O  O573  1  0.676940  0.029230  0.643550  1.0  -0.6402
  O  O574  1  0.693390  0.989930  0.717410  1.0  -0.5857
  O  O575  1  0.585470  0.841030  0.758430  1.0  -0.5638
  O  O576  1  0.559870  0.791590  0.696670  1.0  -0.6552
  O  O577  1  0.277090  0.557950  0.321910  1.0  -0.6329
  O  O578  1  0.328770  0.575160  0.258580  1.0  -0.5526
  O  O579  1  0.474190  0.688340  0.287120  1.0  -0.588
  O  O580  1  0.509330  0.695440  0.363280  1.0  -0.4664
  O  O581  1  0.284040  0.576830  0.714600  1.0  -0.5938
  O  O582  1  0.322580  0.616070  0.779160  1.0  -0.6508
  O  O583  1  0.482120  0.713760  0.736540  1.0  -0.5893
  O  O584  1  0.522190  0.693620  0.664160  1.0  -0.6512
  O  O585  1  0.297900  0.469800  0.237100  1.0  -0.5832
  O  O586  1  0.274900  0.496000  0.160600  1.0  -0.5456
  O  O587  1  0.386630  0.308280  0.262430  1.0  -0.6657
  O  O588  1  0.425760  0.272870  0.196180  1.0  -0.5811
  O  O589  1  0.323060  0.529230  0.856450  1.0  -0.6381
  O  O590  1  0.306610  0.489930  0.782590  1.0  -0.5861
  O  O591  1  0.414530  0.341030  0.741570  1.0  -0.5643
  O  O592  1  0.440130  0.291590  0.803330  1.0  -0.6543
  O  O593  1  0.222910  0.942050  0.321910  1.0  -0.634
  O  O594  1  0.171230  0.924840  0.258580  1.0  -0.5514
  O  O595  1  0.025810  0.811660  0.287120  1.0  -0.5867
  O  O596  1  0.990670  0.804560  0.363280  1.0  -0.4661
  O  O597  1  0.215960  0.923170  0.714600  1.0  -0.5927
  O  O598  1  0.177420  0.883930  0.779160  1.0  -0.6513
  O  O599  1  0.017880  0.786240  0.736540  1.0  -0.5892
  O  O600  1  0.977810  0.806380  0.664160  1.0  -0.6512
  O  O601  1  0.202100  0.030200  0.237100  1.0  -0.585
  O  O602  1  0.225100  0.004000  0.160600  1.0  -0.5412
  O  O603  1  0.113370  0.191720  0.262430  1.0  -0.6647
  O  O604  1  0.074240  0.227130  0.196180  1.0  -0.5805
  O  O605  1  0.176940  0.970770  0.856450  1.0  -0.6408
  O  O606  1  0.193390  0.010070  0.782590  1.0  -0.586
  O  O607  1  0.085470  0.158970  0.741570  1.0  -0.5647
  O  O608  1  0.059870  0.208410  0.803330  1.0  -0.6555
