# generated using pymatgen
data_Zn4H24C42O19
_symmetry_space_group_name_H-M   'P 1'
_cell_length_a   17.12270000
_cell_length_b   17.12270000
_cell_length_c   17.12270000
_cell_angle_alpha   90.00000000
_cell_angle_beta   90.00000000
_cell_angle_gamma   90.00000000
_symmetry_Int_Tables_number   1
_chemical_formula_structural   Zn4H24C42O19
_chemical_formula_sum   'Zn4 H24 C42 O19'
_cell_volume   5020.15056707
_cell_formula_units_Z   1
loop_
 _symmetry_equiv_pos_site_id
 _symmetry_equiv_pos_as_xyz
  1  'x, y, z'
loop_
 _atom_site_type_symbol
 _atom_site_label
 _atom_site_symmetry_multiplicity
 _atom_site_fract_x
 _atom_site_fract_y
 _atom_site_fract_z
 _atom_site_occupancy
 _atom_site_charge
  Zn  Zn1  1  0.565330  0.434670  0.434670  1.0  1.1062
  Zn  Zn2  1  0.434670  0.565330  0.434670  1.0  1.107
  Zn  Zn3  1  0.434670  0.434670  0.565330  1.0  1.1086
  Zn  Zn4  1  0.565330  0.565330  0.565330  1.0  1.1072
  H  H5  1  0.796210  0.584740  0.584740  1.0  0.0712
  H  H6  1  0.922770  0.628710  0.628710  1.0  0.2173
  H  H7  1  0.203790  0.415260  0.584740  1.0  0.0747
  H  H8  1  0.028130  0.440240  0.646190  1.0  0.0929
  H  H9  1  0.203790  0.584740  0.415260  1.0  0.0701
  H  H10  1  0.796210  0.415260  0.415260  1.0  0.0692
  H  H11  1  0.584740  0.796210  0.584740  1.0  0.0738
  H  H12  1  0.552680  0.996420  0.627530  1.0  0.0811
  H  H13  1  0.584740  0.203790  0.415260  1.0  0.0681
  H  H14  1  0.415260  0.203790  0.584740  1.0  0.0679
  H  H15  1  0.394940  0.071320  0.646170  1.0  0.2335
  H  H16  1  0.415260  0.796210  0.415260  1.0  0.0681
  H  H17  1  0.584740  0.584740  0.796210  1.0  0.0697
  H  H18  1  0.415260  0.584740  0.203790  1.0  0.0768
  H  H19  1  0.394940  0.646170  0.071320  1.0  0.2232
  H  H20  1  0.584740  0.415260  0.203790  1.0  0.0653
  H  H21  1  0.415260  0.415260  0.796210  1.0  0.0787
  H  H22  1  0.399110  0.440220  0.015060  1.0  0.1453
  H  H23  1  0.056320  0.586200  0.413800  1.0  0.0654
  H  H24  1  0.943680  0.413800  0.413800  1.0  0.0651
  H  H25  1  0.586200  0.056320  0.413800  1.0  0.0669
  H  H26  1  0.413800  0.943680  0.413800  1.0  0.0657
  H  H27  1  0.586200  0.586200  0.943680  1.0  0.0673
  H  H28  1  0.586200  0.413800  0.056320  1.0  0.0658
  C  C29  1  0.830300  0.544300  0.544300  1.0  -0.0032
  C  C30  1  0.911200  0.545100  0.545100  1.0  0.1543
  C  C31  1  0.169700  0.455700  0.544300  1.0  0.019
  C  C32  1  0.088800  0.454900  0.545100  1.0  0.1789
  C  C33  1  0.169700  0.544300  0.455700  1.0  0.0191
  C  C34  1  0.088800  0.545100  0.454900  1.0  -0.0713
  C  C35  1  0.830300  0.455700  0.455700  1.0  0.0293
  C  C36  1  0.911200  0.454900  0.454900  1.0  -0.0672
  C  C37  1  0.544300  0.830300  0.544300  1.0  0.0103
  C  C38  1  0.545100  0.911200  0.545100  1.0  0.1798
  C  C39  1  0.544300  0.169700  0.455700  1.0  0.036
  C  C40  1  0.545100  0.088800  0.454900  1.0  -0.0419
  C  C41  1  0.455700  0.169700  0.544300  1.0  0.0112
  C  C42  1  0.454900  0.088800  0.545100  1.0  0.152
  C  C43  1  0.455700  0.830300  0.455700  1.0  0.028
  C  C44  1  0.454900  0.911200  0.454900  1.0  -0.0652
  C  C45  1  0.544300  0.544300  0.830300  1.0  0.0154
  C  C46  1  0.545100  0.545100  0.911200  1.0  -0.0662
  C  C47  1  0.455700  0.544300  0.169700  1.0  0.0232
  C  C48  1  0.454900  0.545100  0.088800  1.0  0.1261
  C  C49  1  0.544300  0.455700  0.169700  1.0  0.0341
  C  C50  1  0.545100  0.454900  0.088800  1.0  -0.0404
  C  C51  1  0.455700  0.455700  0.830300  1.0  -0.0016
  C  C52  1  0.454900  0.454900  0.911200  1.0  0.1953
  C  C53  1  0.711500  0.500000  0.500000  1.0  0.7377
  C  C54  1  0.789700  0.500000  0.500000  1.0  0.0165
  C  C55  1  0.958700  0.500000  0.500000  1.0  0.0229
  C  C56  1  0.288500  0.500000  0.500000  1.0  0.746
  C  C57  1  0.210300  0.500000  0.500000  1.0  0.0191
  C  C58  1  0.041300  0.500000  0.500000  1.0  0.0312
  C  C59  1  0.500000  0.711500  0.500000  1.0  0.7372
  C  C60  1  0.500000  0.789700  0.500000  1.0  0.0123
  C  C61  1  0.500000  0.958700  0.500000  1.0  0.0628
  C  C62  1  0.500000  0.288500  0.500000  1.0  0.7422
  C  C63  1  0.500000  0.210300  0.500000  1.0  0.0047
  C  C64  1  0.500000  0.041300  0.500000  1.0  0.0684
  C  C65  1  0.500000  0.500000  0.711500  1.0  0.7396
  C  C66  1  0.500000  0.500000  0.789700  1.0  0.0079
  C  C67  1  0.500000  0.500000  0.958700  1.0  0.1071
  C  C68  1  0.500000  0.500000  0.288500  1.0  0.7425
  C  C69  1  0.500000  0.500000  0.210300  1.0  0.0138
  C  C70  1  0.500000  0.500000  0.041300  1.0  0.111
  O  O71  1  0.500000  0.500000  0.500000  1.0  -1.2958
  O  O72  1  0.675200  0.453800  0.453800  1.0  -0.6506
  O  O73  1  0.959000  0.590700  0.590700  1.0  -0.567
  O  O74  1  0.324800  0.546200  0.453800  1.0  -0.6658
  O  O75  1  0.041000  0.409300  0.590700  1.0  -0.5561
  O  O76  1  0.324800  0.453800  0.546200  1.0  -0.6507
  O  O77  1  0.675200  0.546200  0.546200  1.0  -0.6507
  O  O78  1  0.453800  0.675200  0.453800  1.0  -0.6485
  O  O79  1  0.590700  0.959000  0.590700  1.0  -0.5778
  O  O80  1  0.453800  0.324800  0.546200  1.0  -0.6498
  O  O81  1  0.546200  0.324800  0.453800  1.0  -0.6499
  O  O82  1  0.409300  0.041000  0.590700  1.0  -0.5327
  O  O83  1  0.546200  0.675200  0.546200  1.0  -0.6493
  O  O84  1  0.453800  0.453800  0.675200  1.0  -0.6487
  O  O85  1  0.546200  0.453800  0.324800  1.0  -0.6512
  O  O86  1  0.409300  0.590700  0.041000  1.0  -0.5598
  O  O87  1  0.453800  0.546200  0.324800  1.0  -0.6641
  O  O88  1  0.546200  0.546200  0.675200  1.0  -0.6504
  O  O89  1  0.409300  0.409300  0.959000  1.0  -0.5316
