# generated using pymatgen
data_Ho2H25C39N3O14
_symmetry_space_group_name_H-M   'P 1'
_cell_length_a   12.75510000
_cell_length_b   13.61700000
_cell_length_c   14.13700000
_cell_angle_alpha   66.28000000
_cell_angle_beta   67.14000000
_cell_angle_gamma   77.14900000
_symmetry_Int_Tables_number   1
_chemical_formula_structural   Ho2H25C39N3O14
_chemical_formula_sum   'Ho4 H50 C78 N6 O28'
_cell_volume   2065.03525192
_cell_formula_units_Z   2
loop_
 _symmetry_equiv_pos_site_id
 _symmetry_equiv_pos_as_xyz
  1  'x, y, z'
loop_
 _atom_site_type_symbol
 _atom_site_label
 _atom_site_symmetry_multiplicity
 _atom_site_fract_x
 _atom_site_fract_y
 _atom_site_fract_z
 _atom_site_occupancy
 _atom_site_charge
  Ho  Ho1  1  0.571120  0.118200  0.988740  1.0  2.2408
  Ho  Ho2  1  0.568010  0.179200  0.334860  1.0  2.1491
  Ho  Ho3  1  0.428880  0.881800  0.011260  1.0  2.2413
  Ho  Ho4  1  0.431990  0.820800  0.665140  1.0  2.1524
  H  H5  1  0.651600  0.324000  0.893900  1.0  0.4321
  H  H6  1  0.587200  0.255000  0.861000  1.0  0.3874
  H  H7  1  0.588400  0.258100  0.423200  1.0  0.3051
  H  H8  1  0.478400  0.220700  0.472400  1.0  0.3085
  H  H9  1  0.406400  0.470600  0.158900  1.0  0.0891
  H  H10  1  0.222100  0.633000  0.973500  1.0  0.0662
  H  H11  1  0.325600  0.326900  0.003000  1.0  0.1101
  H  H12  1  0.117400  0.355300  0.012700  1.0  0.0881
  H  H13  1  0.006300  0.357300  0.917800  1.0  0.0916
  H  H14  1  0.016500  0.490000  0.751400  1.0  0.1237
  H  H15  1  0.139600  0.624700  0.680000  1.0  0.103
  H  H16  1  0.671500  0.921700  0.743800  1.0  0.1083
  H  H17  1  0.776300  0.814500  0.640900  1.0  0.1031
  H  H18  1  0.952800  0.736200  0.650800  1.0  0.1073
  H  H19  1  0.024300  0.762600  0.764500  1.0  0.0978
  H  H20  1  0.805000  0.869400  0.024000  1.0  0.0579
  H  H21  1  0.077000  0.870500  0.084400  1.0  0.0719
  H  H22  1  0.107900  0.870800  0.792800  1.0  0.0963
  H  H23  1  0.146900  0.986800  0.555300  1.0  0.1055
  H  H24  1  0.953700  0.043500  0.609200  1.0  0.1004
  H  H25  1  0.891900  0.179400  0.679500  1.0  0.109
  H  H26  1  0.019600  0.262000  0.695100  1.0  0.1094
  H  H27  1  0.204000  0.380600  0.576600  1.0  0.0726
  H  H28  1  0.416000  0.343000  0.728200  1.0  0.0732
  H  H29  1  0.297400  0.084100  0.750900  1.0  0.1032
  H  H30  1  0.348400  0.676000  0.106100  1.0  0.4347
  H  H31  1  0.412800  0.745000  0.139000  1.0  0.3868
  H  H32  1  0.411600  0.741900  0.576800  1.0  0.3238
  H  H33  1  0.521600  0.779300  0.527600  1.0  0.3081
  H  H34  1  0.593600  0.529400  0.841100  1.0  0.0891
  H  H35  1  0.777900  0.367000  0.026500  1.0  0.0655
  H  H36  1  0.674400  0.673100  0.997000  1.0  0.1107
  H  H37  1  0.882600  0.644700  0.987300  1.0  0.0876
  H  H38  1  0.993700  0.642700  0.082200  1.0  0.0914
  H  H39  1  0.983500  0.510000  0.248600  1.0  0.124
  H  H40  1  0.860400  0.375300  0.320000  1.0  0.1036
  H  H41  1  0.328500  0.078300  0.256200  1.0  0.1085
  H  H42  1  0.223700  0.185500  0.359100  1.0  0.1025
  H  H43  1  0.047200  0.263800  0.349200  1.0  0.107
  H  H44  1  0.975700  0.237400  0.235500  1.0  0.0979
  H  H45  1  0.195000  0.130600  0.976000  1.0  0.0581
  H  H46  1  0.923000  0.129500  0.915600  1.0  0.0726
  H  H47  1  0.892100  0.129200  0.207200  1.0  0.0964
  H  H48  1  0.853100  0.013200  0.444700  1.0  0.1058
  H  H49  1  0.046300  0.956500  0.390800  1.0  0.1005
  H  H50  1  0.108100  0.820600  0.320500  1.0  0.1082
  H  H51  1  0.980400  0.738000  0.304900  1.0  0.1094
  H  H52  1  0.796000  0.619400  0.423400  1.0  0.0734
  H  H53  1  0.584000  0.657000  0.271800  1.0  0.0741
  H  H54  1  0.702600  0.915900  0.249100  1.0  0.1037
  C  C55  1  0.439000  0.281300  0.143200  1.0  0.7936
  C  C56  1  0.374900  0.382400  0.090900  1.0  -0.2308
  C  C57  1  0.370000  0.473800  0.112000  1.0  0.1843
  C  C58  1  0.262200  0.569100  0.002500  1.0  0.1898
  C  C59  1  0.263200  0.482300  0.974500  1.0  -0.0089
  C  C60  1  0.321900  0.387100  0.020000  1.0  0.0014
  C  C61  1  0.198100  0.488400  0.904400  1.0  0.0608
  C  C62  1  0.122700  0.409800  0.945400  1.0  -0.1468
  C  C63  1  0.055900  0.411000  0.888500  1.0  -0.0434
  C  C64  1  0.061500  0.489800  0.789800  1.0  -0.1066
  C  C65  1  0.135900  0.570300  0.747100  1.0  -0.0362
  C  C66  1  0.204700  0.570500  0.803300  1.0  -0.1449
  C  C67  1  0.284500  0.656300  0.749700  1.0  0.6758
  C  C68  1  0.708700  0.978400  0.876900  1.0  0.7127
  C  C69  1  0.784000  0.905200  0.817900  1.0  -0.1448
  C  C70  1  0.742500  0.889300  0.748800  1.0  -0.049
  C  C71  1  0.805400  0.825400  0.686500  1.0  -0.079
  C  C72  1  0.910300  0.778800  0.692500  1.0  -0.073
  C  C73  1  0.953100  0.795100  0.760800  1.0  -0.138
  C  C74  1  0.892100  0.859200  0.824300  1.0  0.0457
  C  C75  1  0.945900  0.869200  0.895900  1.0  -0.0702
  C  C76  1  0.883900  0.869600  0.001000  1.0  0.1779
  C  C77  1  0.043400  0.869500  0.037000  1.0  0.2136
  C  C78  1  0.113800  0.867400  0.934900  1.0  -0.2688
  C  C79  1  0.062900  0.869400  0.863100  1.0  0.0078
  C  C80  1  0.240800  0.862600  0.902500  1.0  0.8151
  C  C81  1  0.325700  0.064900  0.535800  1.0  0.7798
  C  C82  1  0.200600  0.093900  0.588400  1.0  -0.1798
  C  C83  1  0.122200  0.043200  0.581900  1.0  -0.0335
  C  C84  1  0.006000  0.076500  0.615400  1.0  -0.0899
  C  C85  1  0.969300  0.157600  0.657000  1.0  -0.0499
  C  C86  1  0.045900  0.207300  0.666000  1.0  -0.1147
  C  C87  1  0.162000  0.177200  0.632200  1.0  0.0476
  C  C88  1  0.239500  0.225100  0.655800  1.0  -0.0351
  C  C89  1  0.246900  0.335100  0.620000  1.0  0.1811
  C  C90  1  0.371400  0.313200  0.709400  1.0  0.2153
  C  C91  1  0.369300  0.202800  0.749800  1.0  -0.2572
  C  C92  1  0.301500  0.158200  0.723500  1.0  0.0004
  C  C93  1  0.435500  0.132100  0.823300  1.0  0.7207
  C  C94  1  0.561000  0.718700  0.856800  1.0  0.7929
  C  C95  1  0.625100  0.617600  0.909100  1.0  -0.2315
  C  C96  1  0.630000  0.526200  0.888000  1.0  0.1841
  C  C97  1  0.737800  0.430900  0.997500  1.0  0.1915
  C  C98  1  0.736800  0.517700  0.025500  1.0  -0.0134
  C  C99  1  0.678100  0.612900  0.980000  1.0  0.0021
  C  C100  1  0.801900  0.511600  0.095600  1.0  0.0565
  C  C101  1  0.877300  0.590200  0.054600  1.0  -0.1474
  C  C102  1  0.944100  0.589000  0.111500  1.0  -0.0435
  C  C103  1  0.938500  0.510200  0.210200  1.0  -0.1067
  C  C104  1  0.864100  0.429700  0.252900  1.0  -0.0362
  C  C105  1  0.795300  0.429500  0.196700  1.0  -0.1453
  C  C106  1  0.715500  0.343700  0.250300  1.0  0.6743
  C  C107  1  0.291300  0.021600  0.123100  1.0  0.7166
  C  C108  1  0.216000  0.094800  0.182100  1.0  -0.1451
  C  C109  1  0.257500  0.110700  0.251200  1.0  -0.0507
  C  C110  1  0.194600  0.174600  0.313500  1.0  -0.0821
  C  C111  1  0.089700  0.221200  0.307500  1.0  -0.0733
  C  C112  1  0.046900  0.204900  0.239200  1.0  -0.1374
  C  C113  1  0.107900  0.140800  0.175700  1.0  0.0447
  C  C114  1  0.054100  0.130800  0.104100  1.0  -0.0711
  C  C115  1  0.116100  0.130400  0.999000  1.0  0.1761
  C  C116  1  0.956600  0.130500  0.963000  1.0  0.2124
  C  C117  1  0.886200  0.132600  0.065100  1.0  -0.2694
  C  C118  1  0.937100  0.130600  0.136900  1.0  0.0093
  C  C119  1  0.759200  0.137400  0.097500  1.0  0.8173
  C  C120  1  0.674300  0.935100  0.464200  1.0  0.7834
  C  C121  1  0.799400  0.906100  0.411600  1.0  -0.1822
  C  C122  1  0.877800  0.956800  0.418100  1.0  -0.0322
  C  C123  1  0.994000  0.923500  0.384600  1.0  -0.0912
  C  C124  1  0.030700  0.842400  0.343000  1.0  -0.0511
  C  C125  1  0.954100  0.792700  0.334000  1.0  -0.1161
  C  C126  1  0.838000  0.822800  0.367800  1.0  0.0546
  C  C127  1  0.760500  0.774900  0.344200  1.0  -0.0422
  C  C128  1  0.753100  0.664900  0.380000  1.0  0.1813
  C  C129  1  0.628600  0.686800  0.290600  1.0  0.2099
  C  C130  1  0.630700  0.797200  0.250200  1.0  -0.2565
  C  C131  1  0.698500  0.841800  0.276500  1.0  -0.0048
  C  C132  1  0.564500  0.867900  0.176700  1.0  0.7331
  N  N133  1  0.315500  0.567000  0.068500  1.0  -0.3691
  N  N134  1  0.929300  0.870200  0.072000  1.0  -0.3884
  N  N135  1  0.312100  0.379700  0.644300  1.0  -0.4158
  N  N136  1  0.684500  0.433000  0.931500  1.0  -0.3702
  N  N137  1  0.070700  0.129800  0.928000  1.0  -0.388
  N  N138  1  0.687900  0.620300  0.355700  1.0  -0.4154
  O  O139  1  0.474300  0.212800  0.096800  1.0  -0.7354
  O  O140  1  0.452600  0.270700  0.229400  1.0  -0.7277
  O  O141  1  0.379100  0.638800  0.765300  1.0  -0.6547
  O  O142  1  0.258600  0.748000  0.687000  1.0  -0.6354
  O  O143  1  0.607700  0.954700  0.938300  1.0  -0.8544
  O  O144  1  0.742900  0.062100  0.866100  1.0  -0.6286
  O  O145  1  0.300700  0.860000  0.809000  1.0  -0.7705
  O  O146  1  0.280100  0.858600  0.972200  1.0  -0.6953
  O  O147  1  0.388500  0.140500  0.475900  1.0  -0.7206
  O  O148  1  0.357200  0.966500  0.550400  1.0  -0.7635
  O  O149  1  0.429800  0.031400  0.853600  1.0  -0.7141
  O  O150  1  0.492100  0.175600  0.849200  1.0  -0.7097
  O  O151  1  0.630200  0.290500  0.866500  1.0  -0.8911
  O  O152  1  0.522700  0.260200  0.470700  1.0  -0.6695
  O  O153  1  0.525700  0.787200  0.903200  1.0  -0.7256
  O  O154  1  0.547400  0.729300  0.770600  1.0  -0.7275
  O  O155  1  0.620900  0.361200  0.234700  1.0  -0.6538
  O  O156  1  0.741400  0.252000  0.313000  1.0  -0.6344
  O  O157  1  0.392300  0.045300  0.061700  1.0  -0.8533
  O  O158  1  0.257100  0.937900  0.133900  1.0  -0.6283
  O  O159  1  0.699300  0.140000  0.191000  1.0  -0.7688
  O  O160  1  0.719900  0.141400  0.027800  1.0  -0.6962
  O  O161  1  0.611500  0.859500  0.524100  1.0  -0.7198
  O  O162  1  0.642800  0.033500  0.449600  1.0  -0.7647
  O  O163  1  0.570200  0.968600  0.146400  1.0  -0.7135
  O  O164  1  0.507900  0.824400  0.150800  1.0  -0.709
  O  O165  1  0.369800  0.709500  0.133500  1.0  -0.9019
  O  O166  1  0.477300  0.739800  0.529300  1.0  -0.6667
