# generated using pymatgen
data_Dy2H23C39N3O13
_symmetry_space_group_name_H-M   'P 1'
_cell_length_a   12.82500000
_cell_length_b   13.67200000
_cell_length_c   14.22700000
_cell_angle_alpha   66.18200000
_cell_angle_beta   66.80000000
_cell_angle_gamma   77.06400000
_symmetry_Int_Tables_number   1
_chemical_formula_structural   Dy2H23C39N3O13
_chemical_formula_sum   'Dy4 H46 C78 N6 O26'
_cell_volume   2091.37285941
_cell_formula_units_Z   2
loop_
 _symmetry_equiv_pos_site_id
 _symmetry_equiv_pos_as_xyz
  1  'x, y, z'
loop_
 _atom_site_type_symbol
 _atom_site_label
 _atom_site_symmetry_multiplicity
 _atom_site_fract_x
 _atom_site_fract_y
 _atom_site_fract_z
 _atom_site_occupancy
 _atom_site_charge
  Dy  Dy1  1  0.428610  0.381490  0.511490  1.0  2.3446
  Dy  Dy2  1  0.431900  0.320410  0.164950  1.0  2.2546
  Dy  Dy3  1  0.571390  0.618510  0.488510  1.0  2.3438
  Dy  Dy4  1  0.568100  0.679590  0.835050  1.0  2.2575
  H  H5  1  0.520100  0.279100  0.026800  1.0  0.4039
  H  H6  1  0.448500  0.191600  0.044900  1.0  0.5468
  H  H7  1  0.675000  0.173500  0.494700  1.0  0.104
  H  H8  1  0.779400  0.867500  0.526200  1.0  0.0639
  H  H9  1  0.595000  0.027600  0.342000  1.0  0.0743
  H  H10  1  0.882100  0.145500  0.487400  1.0  0.0932
  H  H11  1  0.993800  0.142400  0.580900  1.0  0.0847
  H  H12  1  0.982200  0.009000  0.748900  1.0  0.1203
  H  H13  1  0.860000  0.877000  0.818900  1.0  0.0982
  H  H14  1  0.975800  0.736500  0.737300  1.0  0.0981
  H  H15  1  0.046000  0.763400  0.850100  1.0  0.1041
  H  H16  1  0.224000  0.687300  0.858600  1.0  0.1081
  H  H17  1  0.327700  0.580300  0.755900  1.0  0.0995
  H  H18  1  0.891500  0.628500  0.707800  1.0  0.0978
  H  H19  1  0.925700  0.629400  0.414800  1.0  0.0718
  H  H20  1  0.194500  0.634300  0.474300  1.0  0.0566
  H  H21  1  0.146300  0.487300  0.056900  1.0  0.1002
  H  H22  1  0.955300  0.541000  0.111100  1.0  0.0967
  H  H23  1  0.891700  0.680500  0.178200  1.0  0.1111
  H  H24  1  0.019600  0.761600  0.195600  1.0  0.1061
  H  H25  1  0.204800  0.879900  0.077600  1.0  0.0732
  H  H26  1  0.417500  0.842600  0.226800  1.0  0.0777
  H  H27  1  0.298500  0.584300  0.249900  1.0  0.0983
  H  H28  1  0.479900  0.720900  0.973200  1.0  0.4063
  H  H29  1  0.551500  0.808400  0.955100  1.0  0.5468
  H  H30  1  0.325000  0.826500  0.505300  1.0  0.1038
  H  H31  1  0.220600  0.132500  0.473800  1.0  0.0641
  H  H32  1  0.405000  0.972400  0.658000  1.0  0.0743
  H  H33  1  0.117900  0.854500  0.512600  1.0  0.0937
  H  H34  1  0.006200  0.857600  0.419100  1.0  0.0846
  H  H35  1  0.017800  0.991000  0.251100  1.0  0.1206
  H  H36  1  0.140000  0.123000  0.181100  1.0  0.0981
  H  H37  1  0.024200  0.263500  0.262700  1.0  0.0978
  H  H38  1  0.954000  0.236600  0.149900  1.0  0.1042
  H  H39  1  0.776000  0.312700  0.141400  1.0  0.1079
  H  H40  1  0.672300  0.419700  0.244100  1.0  0.0994
  H  H41  1  0.108500  0.371500  0.292200  1.0  0.0982
  H  H42  1  0.074300  0.370600  0.585200  1.0  0.0707
  H  H43  1  0.805500  0.365700  0.525700  1.0  0.057
  H  H44  1  0.853700  0.512700  0.943100  1.0  0.1005
  H  H45  1  0.044700  0.459000  0.888900  1.0  0.0971
  H  H46  1  0.108300  0.319500  0.821800  1.0  0.111
  H  H47  1  0.980400  0.238400  0.804400  1.0  0.1063
  H  H48  1  0.795200  0.120100  0.922400  1.0  0.0741
  H  H49  1  0.582500  0.157400  0.773200  1.0  0.0779
  H  H50  1  0.701500  0.415700  0.750100  1.0  0.0986
  C  C51  1  0.561100  0.217400  0.357300  1.0  0.8172
  C  C52  1  0.625300  0.117100  0.409000  1.0  -0.2253
  C  C53  1  0.678400  0.113100  0.478700  1.0  -0.0104
  C  C54  1  0.737500  0.017000  0.525100  1.0  -0.0202
  C  C55  1  0.738900  0.930800  0.497700  1.0  0.1923
  C  C56  1  0.630900  0.024900  0.388500  1.0  0.2182
  C  C57  1  0.802100  0.011300  0.595100  1.0  0.0547
  C  C58  1  0.877200  0.090700  0.554000  1.0  -0.1303
  C  C59  1  0.943900  0.089200  0.610400  1.0  -0.0507
  C  C60  1  0.937600  0.009400  0.710600  1.0  -0.0935
  C  C61  1  0.864400  0.931200  0.751900  1.0  -0.0362
  C  C62  1  0.795900  0.930800  0.695900  1.0  -0.1453
  C  C63  1  0.714600  0.844300  0.750500  1.0  0.6678
  C  C64  1  0.290300  0.522400  0.622800  1.0  0.7209
  C  C65  1  0.215500  0.596000  0.682000  1.0  -0.1491
  C  C66  1  0.107100  0.640600  0.676700  1.0  0.0498
  C  C67  1  0.047000  0.704300  0.740500  1.0  -0.1223
  C  C68  1  0.089100  0.721300  0.808300  1.0  -0.0742
  C  C69  1  0.194800  0.675800  0.813900  1.0  -0.095
  C  C70  1  0.257000  0.612500  0.751400  1.0  -0.0585
  C  C71  1  0.054900  0.631200  0.603900  1.0  -0.0571
  C  C72  1  0.936700  0.630200  0.637500  1.0  0.0025
  C  C73  1  0.886500  0.632000  0.565300  1.0  -0.2494
  C  C74  1  0.958300  0.630200  0.462400  1.0  0.218
  C  C75  1  0.116100  0.632000  0.498500  1.0  0.1747
  C  C76  1  0.760300  0.638000  0.596200  1.0  0.8417
  C  C77  1  0.324600  0.565100  0.037100  1.0  0.7867
  C  C78  1  0.200700  0.594300  0.089400  1.0  -0.1728
  C  C79  1  0.121300  0.543500  0.083500  1.0  -0.0285
  C  C80  1  0.006800  0.575200  0.116300  1.0  -0.1004
  C  C81  1  0.968700  0.658000  0.157100  1.0  -0.0585
  C  C82  1  0.046000  0.707300  0.166400  1.0  -0.1325
  C  C83  1  0.161900  0.677300  0.133000  1.0  0.0583
  C  C84  1  0.239500  0.724900  0.155700  1.0  -0.0082
  C  C85  1  0.247200  0.834300  0.120900  1.0  0.1724
  C  C86  1  0.372300  0.812900  0.209300  1.0  0.2218
  C  C87  1  0.369600  0.702400  0.249900  1.0  -0.2372
  C  C88  1  0.302100  0.658200  0.223100  1.0  0.0008
  C  C89  1  0.436500  0.632300  0.321200  1.0  0.7842
  C  C90  1  0.438900  0.782600  0.642700  1.0  0.8165
  C  C91  1  0.374700  0.882900  0.591000  1.0  -0.225
  C  C92  1  0.321600  0.886900  0.521300  1.0  -0.0108
  C  C93  1  0.262500  0.983000  0.474900  1.0  -0.0196
  C  C94  1  0.261100  0.069200  0.502300  1.0  0.1923
  C  C95  1  0.369100  0.975100  0.611500  1.0  0.2162
  C  C96  1  0.197900  0.988700  0.404900  1.0  0.0592
  C  C97  1  0.122800  0.909300  0.446000  1.0  -0.1289
  C  C98  1  0.056100  0.910800  0.389600  1.0  -0.0503
  C  C99  1  0.062400  0.990600  0.289400  1.0  -0.0943
  C  C100  1  0.135600  0.068800  0.248100  1.0  -0.0391
  C  C101  1  0.204100  0.069200  0.304100  1.0  -0.1445
  C  C102  1  0.285400  0.155700  0.249500  1.0  0.667
  C  C103  1  0.709700  0.477600  0.377200  1.0  0.72
  C  C104  1  0.784500  0.404000  0.318000  1.0  -0.1493
  C  C105  1  0.892900  0.359400  0.323300  1.0  0.0501
  C  C106  1  0.953000  0.295700  0.259500  1.0  -0.1232
  C  C107  1  0.910900  0.278700  0.191700  1.0  -0.0748
  C  C108  1  0.805200  0.324200  0.186100  1.0  -0.0945
  C  C109  1  0.743000  0.387500  0.248600  1.0  -0.0588
  C  C110  1  0.945100  0.368800  0.396100  1.0  -0.0557
  C  C111  1  0.063300  0.369800  0.362500  1.0  0.0016
  C  C112  1  0.113500  0.368000  0.434700  1.0  -0.2537
  C  C113  1  0.041700  0.369800  0.537600  1.0  0.2166
  C  C114  1  0.883900  0.368000  0.501500  1.0  0.1761
  C  C115  1  0.239700  0.362000  0.403800  1.0  0.8415
  C  C116  1  0.675400  0.434900  0.962900  1.0  0.7881
  C  C117  1  0.799300  0.405700  0.910600  1.0  -0.1757
  C  C118  1  0.878700  0.456500  0.916500  1.0  -0.0271
  C  C119  1  0.993200  0.424800  0.883700  1.0  -0.1012
  C  C120  1  0.031300  0.342000  0.842900  1.0  -0.0595
  C  C121  1  0.954000  0.292700  0.833600  1.0  -0.1312
  C  C122  1  0.838100  0.322700  0.867000  1.0  0.0631
  C  C123  1  0.760500  0.275100  0.844300  1.0  -0.0182
  C  C124  1  0.752800  0.165700  0.879100  1.0  0.1724
  C  C125  1  0.627700  0.187100  0.790700  1.0  0.2199
  C  C126  1  0.630400  0.297600  0.750100  1.0  -0.2377
  C  C127  1  0.697900  0.341800  0.776900  1.0  -0.0093
  C  C128  1  0.563500  0.367700  0.678800  1.0  0.7888
  N  N129  1  0.685400  0.932300  0.432200  1.0  -0.4431
  N  N130  1  0.071100  0.629500  0.428600  1.0  -0.3982
  N  N131  1  0.312200  0.879000  0.145400  1.0  -0.4379
  N  N132  1  0.314600  0.067700  0.567800  1.0  -0.4438
  N  N133  1  0.928900  0.370500  0.571400  1.0  -0.399
  N  N134  1  0.687800  0.121000  0.854600  1.0  -0.4384
  O  O135  1  0.525600  0.286200  0.403500  1.0  -0.7992
  O  O136  1  0.548300  0.227700  0.270700  1.0  -0.7439
  O  O137  1  0.621100  0.862800  0.735000  1.0  -0.6557
  O  O138  1  0.741200  0.753300  0.812400  1.0  -0.6715
  O  O139  1  0.256200  0.438300  0.635000  1.0  -0.6571
  O  O140  1  0.391300  0.546700  0.561100  1.0  -0.8776
  O  O141  1  0.699600  0.640300  0.690600  1.0  -0.786
  O  O142  1  0.721600  0.639900  0.527500  1.0  -0.7443
  O  O143  1  0.356200  0.467300  0.050500  1.0  -0.7653
  O  O144  1  0.388200  0.640100  0.977400  1.0  -0.7407
  O  O145  1  0.431100  0.531800  0.352700  1.0  -0.7232
  O  O146  1  0.492400  0.676300  0.348200  1.0  -0.7721
  O  O147  1  0.475800  0.239900  0.028900  1.0  -0.9905
  O  O148  1  0.474400  0.713800  0.596500  1.0  -0.8034
  O  O149  1  0.451700  0.772300  0.729300  1.0  -0.7445
  O  O150  1  0.378900  0.137200  0.265000  1.0  -0.6552
  O  O151  1  0.258800  0.246700  0.187600  1.0  -0.6713
  O  O152  1  0.743800  0.561700  0.365000  1.0  -0.6558
  O  O153  1  0.608700  0.453300  0.438900  1.0  -0.8776
  O  O154  1  0.300400  0.359700  0.309400  1.0  -0.7877
  O  O155  1  0.278400  0.360100  0.472500  1.0  -0.7402
  O  O156  1  0.643800  0.532700  0.949500  1.0  -0.7665
  O  O157  1  0.611800  0.359900  0.022600  1.0  -0.7416
  O  O158  1  0.568900  0.468200  0.647300  1.0  -0.7226
  O  O159  1  0.507600  0.323700  0.651800  1.0  -0.772
  O  O160  1  0.524200  0.760100  0.971100  1.0  -0.99
