# generated using pymatgen
data_Tb2H25C39N3O14
_symmetry_space_group_name_H-M   'P 1'
_cell_length_a   12.78800000
_cell_length_b   13.67000000
_cell_length_c   14.21100000
_cell_angle_alpha   66.16900000
_cell_angle_beta   66.94700000
_cell_angle_gamma   77.01900000
_symmetry_Int_Tables_number   1
_chemical_formula_structural   Tb2H25C39N3O14
_chemical_formula_sum   'Tb4 H50 C78 N6 O28'
_cell_volume   2084.45829378
_cell_formula_units_Z   2
loop_
 _symmetry_equiv_pos_site_id
 _symmetry_equiv_pos_as_xyz
  1  'x, y, z'
loop_
 _atom_site_type_symbol
 _atom_site_label
 _atom_site_symmetry_multiplicity
 _atom_site_fract_x
 _atom_site_fract_y
 _atom_site_fract_z
 _atom_site_occupancy
 _atom_site_charge
  Tb  Tb1  1  0.571490  0.118650  0.988570  1.0  2.249
  Tb  Tb2  1  0.568280  0.179780  0.335160  1.0  2.2643
  Tb  Tb3  1  0.428510  0.881350  0.011430  1.0  2.248
  Tb  Tb4  1  0.431720  0.820220  0.664840  1.0  2.2654
  H  H5  1  0.653000  0.325400  0.893400  1.0  0.4026
  H  H6  1  0.589200  0.256500  0.859800  1.0  0.3806
  H  H7  1  0.554000  0.305700  0.477200  1.0  0.5048
  H  H8  1  0.479600  0.221200  0.473000  1.0  0.3667
  H  H9  1  0.327200  0.327400  0.003100  1.0  0.1131
  H  H10  1  0.222900  0.632500  0.972200  1.0  0.07
  H  H11  1  0.405500  0.471300  0.158600  1.0  0.0887
  H  H12  1  0.117800  0.354600  0.013100  1.0  0.0864
  H  H13  1  0.007100  0.356300  0.919300  1.0  0.0946
  H  H14  1  0.015900  0.489800  0.754400  1.0  0.1153
  H  H15  1  0.138000  0.623200  0.682800  1.0  0.1021
  H  H16  1  0.672100  0.919500  0.744700  1.0  0.1067
  H  H17  1  0.777200  0.815400  0.640700  1.0  0.1054
  H  H18  1  0.952700  0.736600  0.651100  1.0  0.1086
  H  H19  1  0.024900  0.764300  0.762800  1.0  0.0996
  H  H20  1  0.805100  0.868000  0.024000  1.0  0.0547
  H  H21  1  0.074400  0.871100  0.084200  1.0  0.0684
  H  H22  1  0.108300  0.870100  0.792800  1.0  0.102
  H  H23  1  0.146800  0.988100  0.557600  1.0  0.1042
  H  H24  1  0.954500  0.044000  0.610400  1.0  0.1025
  H  H25  1  0.892200  0.180600  0.680000  1.0  0.1084
  H  H26  1  0.019300  0.261600  0.697200  1.0  0.1078
  H  H27  1  0.204900  0.380300  0.577400  1.0  0.0679
  H  H28  1  0.416800  0.343500  0.727100  1.0  0.0828
  H  H29  1  0.299200  0.084200  0.750100  1.0  0.106
  H  H30  1  0.347000  0.674600  0.106600  1.0  0.4065
  H  H31  1  0.410800  0.743500  0.140200  1.0  0.3795
  H  H32  1  0.446000  0.694300  0.522800  1.0  0.5045
  H  H33  1  0.520400  0.778800  0.527000  1.0  0.3645
  H  H34  1  0.672800  0.672600  0.996900  1.0  0.1136
  H  H35  1  0.777100  0.367500  0.027800  1.0  0.0696
  H  H36  1  0.594500  0.528700  0.841400  1.0  0.0884
  H  H37  1  0.882200  0.645400  0.986900  1.0  0.086
  H  H38  1  0.992900  0.643700  0.080700  1.0  0.0947
  H  H39  1  0.984100  0.510200  0.245600  1.0  0.1158
  H  H40  1  0.862000  0.376800  0.317200  1.0  0.102
  H  H41  1  0.327900  0.080500  0.255300  1.0  0.1073
  H  H42  1  0.222800  0.184600  0.359300  1.0  0.1049
  H  H43  1  0.047300  0.263400  0.348900  1.0  0.1086
  H  H44  1  0.975100  0.235700  0.237200  1.0  0.1
  H  H45  1  0.194900  0.132000  0.976000  1.0  0.0538
  H  H46  1  0.925600  0.128900  0.915800  1.0  0.0684
  H  H47  1  0.891700  0.129900  0.207200  1.0  0.1019
  H  H48  1  0.853200  0.011900  0.442400  1.0  0.1043
  H  H49  1  0.045500  0.956000  0.389600  1.0  0.1028
  H  H50  1  0.107800  0.819400  0.320000  1.0  0.1077
  H  H51  1  0.980700  0.738400  0.302800  1.0  0.1082
  H  H52  1  0.795100  0.619700  0.422600  1.0  0.0686
  H  H53  1  0.583200  0.656500  0.272900  1.0  0.0829
  H  H54  1  0.700800  0.915800  0.249900  1.0  0.106
  C  C55  1  0.439100  0.282500  0.142500  1.0  0.7407
  C  C56  1  0.374400  0.383200  0.091100  1.0  -0.2096
  C  C57  1  0.322400  0.387400  0.020500  1.0  -0.0375
  C  C58  1  0.262600  0.482600  0.975500  1.0  -0.0051
  C  C59  1  0.262100  0.568600  0.002200  1.0  0.196
  C  C60  1  0.369200  0.474300  0.112100  1.0  0.1796
  C  C61  1  0.197600  0.487800  0.905400  1.0  0.0339
  C  C62  1  0.122800  0.409100  0.946200  1.0  -0.1189
  C  C63  1  0.056200  0.410100  0.890200  1.0  -0.0452
  C  C64  1  0.061400  0.489300  0.792100  1.0  -0.0614
  C  C65  1  0.134800  0.568700  0.749300  1.0  -0.048
  C  C66  1  0.204100  0.568200  0.804600  1.0  -0.1425
  C  C67  1  0.285100  0.654900  0.750500  1.0  0.6841
  C  C68  1  0.710400  0.976900  0.877300  1.0  0.7025
  C  C69  1  0.784600  0.904100  0.817700  1.0  -0.1413
  C  C70  1  0.743300  0.887900  0.748800  1.0  -0.084
  C  C71  1  0.806000  0.825700  0.686500  1.0  -0.0583
  C  C72  1  0.910300  0.779400  0.692400  1.0  -0.0635
  C  C73  1  0.953300  0.796100  0.759900  1.0  -0.1279
  C  C74  1  0.893100  0.858700  0.823200  1.0  -0.0026
  C  C75  1  0.945300  0.868700  0.896000  1.0  -0.0446
  C  C76  1  0.883800  0.868900  0.000600  1.0  0.1814
  C  C77  1  0.041600  0.869900  0.036800  1.0  0.2118
  C  C78  1  0.113000  0.867800  0.934700  1.0  -0.2587
  C  C79  1  0.063000  0.869100  0.862700  1.0  -0.0293
  C  C80  1  0.239300  0.862700  0.903100  1.0  0.7547
  C  C81  1  0.323800  0.066200  0.537500  1.0  0.7453
  C  C82  1  0.199700  0.095600  0.589800  1.0  -0.1529
  C  C83  1  0.121700  0.044500  0.583800  1.0  -0.104
  C  C84  1  0.006500  0.077100  0.616500  1.0  -0.1038
  C  C85  1  0.969400  0.158500  0.658100  1.0  -0.0982
  C  C86  1  0.045700  0.207600  0.667500  1.0  -0.1083
  C  C87  1  0.162300  0.177500  0.633200  1.0  0.0459
  C  C88  1  0.239400  0.224600  0.656800  1.0  0.0109
  C  C89  1  0.247400  0.334600  0.621000  1.0  0.1777
  C  C90  1  0.372000  0.313600  0.709100  1.0  0.2032
  C  C91  1  0.369700  0.202800  0.749600  1.0  -0.2021
  C  C92  1  0.302300  0.158200  0.723400  1.0  -0.0227
  C  C93  1  0.437300  0.132300  0.821000  1.0  0.6993
  C  C94  1  0.560900  0.717500  0.857500  1.0  0.7404
  C  C95  1  0.625600  0.616800  0.908900  1.0  -0.2104
  C  C96  1  0.677600  0.612600  0.979500  1.0  -0.0381
  C  C97  1  0.737400  0.517400  0.024500  1.0  -0.0067
  C  C98  1  0.737900  0.431400  0.997800  1.0  0.196
  C  C99  1  0.630800  0.525700  0.887900  1.0  0.18
  C  C100  1  0.802400  0.512200  0.094600  1.0  0.0312
  C  C101  1  0.877200  0.590900  0.053800  1.0  -0.119
  C  C102  1  0.943800  0.589900  0.109800  1.0  -0.0454
  C  C103  1  0.938600  0.510700  0.207900  1.0  -0.0589
  C  C104  1  0.865200  0.431300  0.250700  1.0  -0.0454
  C  C105  1  0.795900  0.431800  0.195400  1.0  -0.1432
  C  C106  1  0.714900  0.345100  0.249500  1.0  0.6827
  C  C107  1  0.289600  0.023100  0.122700  1.0  0.7035
  C  C108  1  0.215400  0.095900  0.182300  1.0  -0.1417
  C  C109  1  0.256700  0.112100  0.251200  1.0  -0.0872
  C  C110  1  0.194000  0.174300  0.313500  1.0  -0.059
  C  C111  1  0.089700  0.220600  0.307600  1.0  -0.0618
  C  C112  1  0.046700  0.203900  0.240100  1.0  -0.1267
  C  C113  1  0.106900  0.141300  0.176800  1.0  -0.0026
  C  C114  1  0.054700  0.131300  0.104000  1.0  -0.0456
  C  C115  1  0.116200  0.131100  0.999400  1.0  0.1799
  C  C116  1  0.958400  0.130100  0.963200  1.0  0.2114
  C  C117  1  0.887000  0.132200  0.065300  1.0  -0.2569
  C  C118  1  0.937000  0.130900  0.137300  1.0  -0.0274
  C  C119  1  0.760700  0.137300  0.096900  1.0  0.7559
  C  C120  1  0.676200  0.933800  0.462500  1.0  0.7458
  C  C121  1  0.800300  0.904400  0.410200  1.0  -0.1561
  C  C122  1  0.878300  0.955500  0.416200  1.0  -0.1031
  C  C123  1  0.993500  0.922900  0.383500  1.0  -0.1025
  C  C124  1  0.030600  0.841500  0.341900  1.0  -0.101
  C  C125  1  0.954300  0.792400  0.332500  1.0  -0.1083
  C  C126  1  0.837700  0.822500  0.366800  1.0  0.0476
  C  C127  1  0.760600  0.775400  0.343200  1.0  0.0055
  C  C128  1  0.752600  0.665400  0.379000  1.0  0.1791
  C  C129  1  0.628000  0.686400  0.290900  1.0  0.2033
  C  C130  1  0.630300  0.797200  0.250400  1.0  -0.2024
  C  C131  1  0.697700  0.841800  0.276600  1.0  -0.0275
  C  C132  1  0.562700  0.867700  0.179000  1.0  0.7044
  N  N133  1  0.314100  0.567200  0.068500  1.0  -0.3727
  N  N134  1  0.928400  0.870300  0.070700  1.0  -0.4
  N  N135  1  0.312400  0.378700  0.645400  1.0  -0.4368
  N  N136  1  0.685900  0.432800  0.931500  1.0  -0.3733
  N  N137  1  0.071600  0.129700  0.929300  1.0  -0.3984
  N  N138  1  0.687600  0.621300  0.354600  1.0  -0.4342
  O  O139  1  0.474100  0.215200  0.096700  1.0  -0.6766
  O  O140  1  0.451400  0.272600  0.229500  1.0  -0.7356
  O  O141  1  0.258200  0.745900  0.688600  1.0  -0.6776
  O  O142  1  0.378500  0.636700  0.765500  1.0  -0.6437
  O  O143  1  0.743300  0.061000  0.865000  1.0  -0.6117
  O  O144  1  0.609800  0.952700  0.939300  1.0  -0.8632
  O  O145  1  0.277700  0.859900  0.972300  1.0  -0.7003
  O  O146  1  0.299400  0.859600  0.810300  1.0  -0.7419
  O  O147  1  0.387300  0.140800  0.478000  1.0  -0.7114
  O  O148  1  0.355500  0.968400  0.550800  1.0  -0.7356
  O  O149  1  0.432400  0.032200  0.851100  1.0  -0.7186
  O  O150  1  0.493500  0.175400  0.847200  1.0  -0.674
  O  O151  1  0.631600  0.292000  0.865500  1.0  -0.8835
  O  O152  1  0.524500  0.260200  0.470600  1.0  -0.8759
  O  O153  1  0.525900  0.784800  0.903300  1.0  -0.6749
  O  O154  1  0.548600  0.727400  0.770500  1.0  -0.735
  O  O155  1  0.741800  0.254100  0.311400  1.0  -0.6755
  O  O156  1  0.621500  0.363300  0.234500  1.0  -0.6419
  O  O157  1  0.256700  0.939000  0.135000  1.0  -0.6106
  O  O158  1  0.390200  0.047300  0.060700  1.0  -0.8629
  O  O159  1  0.722300  0.140100  0.027700  1.0  -0.7015
  O  O160  1  0.700600  0.140400  0.189700  1.0  -0.7394
  O  O161  1  0.612700  0.859200  0.522000  1.0  -0.7128
  O  O162  1  0.644500  0.031600  0.449200  1.0  -0.7364
  O  O163  1  0.567600  0.967800  0.148900  1.0  -0.7171
  O  O164  1  0.506500  0.824600  0.152800  1.0  -0.673
  O  O165  1  0.368400  0.708000  0.134500  1.0  -0.8893
  O  O166  1  0.475500  0.739800  0.529400  1.0  -0.8785
