# generated using pymatgen
data_CaH8C14SO6
_symmetry_space_group_name_H-M   'P 1'
_cell_length_a   5.54180000
_cell_length_b   11.88310000
_cell_length_c   22.65150000
_cell_angle_alpha   101.60700000
_cell_angle_beta   90.00000000
_cell_angle_gamma   90.00000000
_symmetry_Int_Tables_number   1
_chemical_formula_structural   CaH8C14SO6
_chemical_formula_sum   'Ca4 H32 C56 S4 O24'
_cell_volume   1461.18254464
_cell_formula_units_Z   4
loop_
 _symmetry_equiv_pos_site_id
 _symmetry_equiv_pos_as_xyz
  1  'x, y, z'
loop_
 _atom_site_type_symbol
 _atom_site_label
 _atom_site_symmetry_multiplicity
 _atom_site_fract_x
 _atom_site_fract_y
 _atom_site_fract_z
 _atom_site_occupancy
 _atom_site_charge
  Ca  Ca1  1  0.765260  0.602270  0.042090  1.0  1.584
  Ca  Ca2  1  0.265260  0.897730  0.457910  1.0  1.585
  Ca  Ca3  1  0.234740  0.397730  0.957910  1.0  1.585
  Ca  Ca4  1  0.734740  0.102270  0.542090  1.0  1.5839
  H  H5  1  0.212300  0.107500  0.119000  1.0  0.1077
  H  H6  1  0.211700  0.977600  0.214100  1.0  0.1076
  H  H7  1  0.573000  0.824000  0.166000  1.0  0.1113
  H  H8  1  0.123600  0.279800  0.090200  1.0  0.1093
  H  H9  1  0.489200  0.827300  0.267200  1.0  0.0848
  H  H10  1  0.131000  0.974300  0.314500  1.0  0.1074
  H  H11  1  0.561500  0.983400  0.059000  1.0  0.107
  H  H12  1  0.472700  0.157500  0.031800  1.0  0.0958
  H  H13  1  0.712300  0.392500  0.381000  1.0  0.1075
  H  H14  1  0.711700  0.522400  0.285900  1.0  0.1071
  H  H15  1  0.073000  0.676000  0.334000  1.0  0.1121
  H  H16  1  0.623600  0.220200  0.409800  1.0  0.11
  H  H17  1  0.989200  0.672700  0.232800  1.0  0.0847
  H  H18  1  0.631000  0.525700  0.185500  1.0  0.1078
  H  H19  1  0.061500  0.516600  0.441000  1.0  0.1066
  H  H20  1  0.972700  0.342500  0.468200  1.0  0.0957
  H  H21  1  0.787700  0.892500  0.881000  1.0  0.1074
  H  H22  1  0.788300  0.022400  0.785900  1.0  0.1068
  H  H23  1  0.427000  0.176000  0.834000  1.0  0.112
  H  H24  1  0.876400  0.720200  0.909800  1.0  0.1094
  H  H25  1  0.510800  0.172700  0.732800  1.0  0.0847
  H  H26  1  0.869000  0.025700  0.685500  1.0  0.1076
  H  H27  1  0.438500  0.016600  0.941000  1.0  0.1072
  H  H28  1  0.527300  0.842500  0.968200  1.0  0.0957
  H  H29  1  0.287700  0.607500  0.619000  1.0  0.1077
  H  H30  1  0.288300  0.477600  0.714100  1.0  0.1075
  H  H31  1  0.927000  0.324000  0.666000  1.0  0.1114
  H  H32  1  0.376400  0.779800  0.590200  1.0  0.1093
  H  H33  1  0.010800  0.327300  0.767200  1.0  0.0847
  H  H34  1  0.369000  0.474300  0.814500  1.0  0.1073
  H  H35  1  0.938500  0.483400  0.559000  1.0  0.1076
  H  H36  1  0.027300  0.657500  0.531800  1.0  0.0956
  C  C37  1  0.754200  0.891940  0.365720  1.0  0.7639
  C  C38  1  0.732900  0.344090  0.035830  1.0  0.7413
  C  C39  1  0.066100  0.117200  0.100490  1.0  -0.0345
  C  C40  1  0.069000  0.945700  0.224760  1.0  -0.0417
  C  C41  1  0.684100  0.854100  0.195750  1.0  -0.0256
  C  C42  1  0.902600  0.898610  0.181050  1.0  -0.224
  C  C43  1  0.011900  0.220200  0.083610  1.0  -0.0519
  C  C44  1  0.635400  0.855660  0.256340  1.0  -0.0397
  C  C45  1  0.803300  0.899270  0.300590  1.0  -0.1137
  C  C46  1  0.791600  0.234700  0.056890  1.0  -0.1191
  C  C47  1  0.019200  0.944600  0.284820  1.0  -0.0457
  C  C48  1  0.898200  0.028720  0.089340  1.0  -0.2097
  C  C49  1  0.674500  0.042500  0.064620  1.0  -0.0297
  C  C50  1  0.622200  0.146700  0.048410  1.0  -0.0616
  C  C51  1  0.254200  0.608060  0.134280  1.0  0.7662
  C  C52  1  0.232900  0.155910  0.464170  1.0  0.7407
  C  C53  1  0.566100  0.382800  0.399510  1.0  -0.0348
  C  C54  1  0.569000  0.554300  0.275240  1.0  -0.0428
  C  C55  1  0.184100  0.645900  0.304250  1.0  -0.0261
  C  C56  1  0.402600  0.601390  0.318950  1.0  -0.2234
  C  C57  1  0.511900  0.279800  0.416390  1.0  -0.0526
  C  C58  1  0.135400  0.644340  0.243660  1.0  -0.0394
  C  C59  1  0.303300  0.600730  0.199410  1.0  -0.1141
  C  C60  1  0.291600  0.265300  0.443110  1.0  -0.1198
  C  C61  1  0.519200  0.555400  0.215180  1.0  -0.0468
  C  C62  1  0.398200  0.471280  0.410660  1.0  -0.21
  C  C63  1  0.174500  0.457500  0.435380  1.0  -0.0291
  C  C64  1  0.122200  0.353300  0.451590  1.0  -0.0594
  C  C65  1  0.245800  0.108060  0.634280  1.0  0.7668
  C  C66  1  0.267100  0.655910  0.964170  1.0  0.7403
  C  C67  1  0.933900  0.882800  0.899510  1.0  -0.0347
  C  C68  1  0.931000  0.054300  0.775240  1.0  -0.0419
  C  C69  1  0.315900  0.145900  0.804250  1.0  -0.0261
  C  C70  1  0.097400  0.101390  0.818950  1.0  -0.2235
  C  C71  1  0.988100  0.779800  0.916390  1.0  -0.0522
  C  C72  1  0.364600  0.144340  0.743660  1.0  -0.0412
  C  C73  1  0.196700  0.100730  0.699410  1.0  -0.1143
  C  C74  1  0.208400  0.765300  0.943110  1.0  -0.1196
  C  C75  1  0.980800  0.055400  0.715180  1.0  -0.0444
  C  C76  1  0.101800  0.971280  0.910660  1.0  -0.21
  C  C77  1  0.325500  0.957500  0.935380  1.0  -0.0294
  C  C78  1  0.377800  0.853300  0.951590  1.0  -0.0607
  C  C79  1  0.745800  0.391940  0.865720  1.0  0.7647
  C  C80  1  0.767100  0.844090  0.535830  1.0  0.7408
  C  C81  1  0.433900  0.617200  0.600490  1.0  -0.0356
  C  C82  1  0.431000  0.445700  0.724760  1.0  -0.0427
  C  C83  1  0.815900  0.354100  0.695750  1.0  -0.0257
  C  C84  1  0.597400  0.398610  0.681050  1.0  -0.224
  C  C85  1  0.488100  0.720200  0.583610  1.0  -0.0523
  C  C86  1  0.864600  0.355660  0.756340  1.0  -0.041
  C  C87  1  0.696700  0.399270  0.800590  1.0  -0.1142
  C  C88  1  0.708400  0.734700  0.556890  1.0  -0.119
  C  C89  1  0.480800  0.444600  0.784820  1.0  -0.0459
  C  C90  1  0.601800  0.528720  0.589340  1.0  -0.2098
  C  C91  1  0.825500  0.542500  0.564620  1.0  -0.03
  C  C92  1  0.877800  0.646700  0.548410  1.0  -0.063
  S  S93  1  0.975820  0.892860  0.104710  1.0  1.1474
  S  S94  1  0.475820  0.607140  0.395290  1.0  1.1481
  S  S95  1  0.024180  0.107140  0.895290  1.0  1.1486
  S  S96  1  0.524180  0.392860  0.604710  1.0  1.1479
  O  O97  1  0.516600  0.368400  0.029710  1.0  -0.7051
  O  O98  1  0.232700  0.879360  0.098160  1.0  -0.5326
  O  O99  1  0.817200  0.810140  0.067860  1.0  -0.6261
  O  O100  1  0.538600  0.882100  0.380090  1.0  -0.7115
  O  O101  1  0.908200  0.407270  0.027010  1.0  -0.769
  O  O102  1  0.933600  0.893510  0.399090  1.0  -0.7269
  O  O103  1  0.016600  0.131600  0.470290  1.0  -0.7053
  O  O104  1  0.732700  0.620640  0.401840  1.0  -0.5325
  O  O105  1  0.317200  0.689860  0.432140  1.0  -0.6256
  O  O106  1  0.038600  0.617900  0.119910  1.0  -0.7126
  O  O107  1  0.408200  0.092730  0.472990  1.0  -0.7689
  O  O108  1  0.433600  0.606490  0.100910  1.0  -0.7271
  O  O109  1  0.483400  0.631600  0.970290  1.0  -0.7044
  O  O110  1  0.767300  0.120640  0.901840  1.0  -0.5313
  O  O111  1  0.182800  0.189860  0.932140  1.0  -0.6257
  O  O112  1  0.461400  0.117900  0.619910  1.0  -0.7119
  O  O113  1  0.091800  0.592730  0.972990  1.0  -0.7689
  O  O114  1  0.066400  0.106490  0.600910  1.0  -0.7278
  O  O115  1  0.983400  0.868400  0.529710  1.0  -0.7045
  O  O116  1  0.267300  0.379360  0.598160  1.0  -0.5315
  O  O117  1  0.682800  0.310140  0.567860  1.0  -0.6263
  O  O118  1  0.961400  0.382100  0.880090  1.0  -0.7107
  O  O119  1  0.591800  0.907270  0.527010  1.0  -0.7688
  O  O120  1  0.566400  0.393510  0.899090  1.0  -0.7273
