# generated using pymatgen
data_ZnH16C24NO5
_symmetry_space_group_name_H-M   'P 1'
_cell_length_a   15.18690000
_cell_length_b   24.15870000
_cell_length_c   15.85110000
_cell_angle_alpha   90.00000000
_cell_angle_beta   111.14100000
_cell_angle_gamma   90.00000000
_symmetry_Int_Tables_number   1
_chemical_formula_structural   ZnH16C24NO5
_chemical_formula_sum   'Zn8 H128 C192 N8 O40'
_cell_volume   5424.27961437
_cell_formula_units_Z   8
loop_
 _symmetry_equiv_pos_site_id
 _symmetry_equiv_pos_as_xyz
  1  'x, y, z'
loop_
 _atom_site_type_symbol
 _atom_site_label
 _atom_site_symmetry_multiplicity
 _atom_site_fract_x
 _atom_site_fract_y
 _atom_site_fract_z
 _atom_site_occupancy
 _atom_site_charge
  Zn  Zn1  1  0.573580  0.487340  0.361790  1.0  0.9516
  Zn  Zn2  1  0.073580  0.987340  0.361790  1.0  0.9516
  Zn  Zn3  1  0.426420  0.487340  0.138210  1.0  0.9518
  Zn  Zn4  1  0.926420  0.987340  0.138210  1.0  0.9518
  Zn  Zn5  1  0.426420  0.512660  0.638210  1.0  0.952
  Zn  Zn6  1  0.926420  0.012660  0.638210  1.0  0.952
  Zn  Zn7  1  0.573580  0.512660  0.861790  1.0  0.9519
  Zn  Zn8  1  0.073580  0.012660  0.861790  1.0  0.9519
  H  H9  1  0.558800  0.440500  0.531800  1.0  0.0863
  H  H10  1  0.649600  0.428800  0.681600  1.0  0.1256
  H  H11  1  0.874200  0.481900  0.624800  1.0  0.1141
  H  H12  1  0.777600  0.490300  0.475400  1.0  0.0806
  H  H13  1  0.808800  0.431600  0.805600  1.0  0.0895
  H  H14  1  0.922700  0.511400  0.771000  1.0  0.0977
  H  H15  1  0.011300  0.568500  0.900700  1.0  0.1123
  H  H16  1  0.909500  0.421200  0.944800  1.0  0.1187
  H  H17  1  0.722500  0.661300  0.339300  1.0  0.1092
  H  H18  1  0.721700  0.758000  0.339100  1.0  0.1201
  H  H19  1  0.474900  0.756900  0.382000  1.0  0.1367
  H  H20  1  0.473600  0.660700  0.376500  1.0  0.1055
  H  H21  1  0.719600  0.899500  0.181700  1.0  0.1105
  H  H22  1  0.598800  0.853100  0.211100  1.0  0.1268
  H  H23  1  0.746900  0.862700  0.477700  1.0  0.1162
  H  H24  1  0.868100  0.907800  0.448400  1.0  0.0934
  H  H25  1  0.058800  0.940500  0.531800  1.0  0.086
  H  H26  1  0.149600  0.928800  0.681600  1.0  0.1256
  H  H27  1  0.374200  0.981900  0.624800  1.0  0.1141
  H  H28  1  0.277600  0.990300  0.475400  1.0  0.0806
  H  H29  1  0.308800  0.931600  0.805600  1.0  0.0895
  H  H30  1  0.422700  0.011400  0.771000  1.0  0.0977
  H  H31  1  0.511300  0.068500  0.900700  1.0  0.1123
  H  H32  1  0.409500  0.921200  0.944800  1.0  0.1187
  H  H33  1  0.222500  0.161300  0.339300  1.0  0.1092
  H  H34  1  0.221700  0.258000  0.339100  1.0  0.1201
  H  H35  1  0.974900  0.256900  0.382000  1.0  0.1367
  H  H36  1  0.973600  0.160700  0.376500  1.0  0.1055
  H  H37  1  0.219600  0.399500  0.181700  1.0  0.1105
  H  H38  1  0.098800  0.353100  0.211100  1.0  0.1268
  H  H39  1  0.246900  0.362700  0.477700  1.0  0.1162
  H  H40  1  0.368100  0.407800  0.448400  1.0  0.0934
  H  H41  1  0.441200  0.440500  0.968200  1.0  0.086
  H  H42  1  0.350400  0.428800  0.818400  1.0  0.1252
  H  H43  1  0.125800  0.481900  0.875200  1.0  0.1139
  H  H44  1  0.222400  0.490300  0.024600  1.0  0.0801
  H  H45  1  0.191200  0.431600  0.694400  1.0  0.0906
  H  H46  1  0.077300  0.511400  0.729000  1.0  0.0976
  H  H47  1  0.988700  0.568500  0.599300  1.0  0.1124
  H  H48  1  0.090500  0.421200  0.555200  1.0  0.1203
  H  H49  1  0.277500  0.661300  0.160700  1.0  0.1074
  H  H50  1  0.278300  0.758000  0.160900  1.0  0.1192
  H  H51  1  0.525100  0.756900  0.118000  1.0  0.1374
  H  H52  1  0.526400  0.660700  0.123500  1.0  0.1053
  H  H53  1  0.280400  0.899500  0.318300  1.0  0.1101
  H  H54  1  0.401200  0.853100  0.288900  1.0  0.1277
  H  H55  1  0.253100  0.862700  0.022300  1.0  0.1173
  H  H56  1  0.131900  0.907800  0.051600  1.0  0.0933
  H  H57  1  0.941200  0.940500  0.968200  1.0  0.086
  H  H58  1  0.850400  0.928800  0.818400  1.0  0.1252
  H  H59  1  0.625800  0.981900  0.875200  1.0  0.1139
  H  H60  1  0.722400  0.990300  0.024600  1.0  0.0801
  H  H61  1  0.691200  0.931600  0.694400  1.0  0.0906
  H  H62  1  0.577300  0.011400  0.729000  1.0  0.0976
  H  H63  1  0.488700  0.068500  0.599300  1.0  0.1124
  H  H64  1  0.590500  0.921200  0.555200  1.0  0.1203
  H  H65  1  0.777500  0.161300  0.160700  1.0  0.1074
  H  H66  1  0.778300  0.258000  0.160900  1.0  0.1192
  H  H67  1  0.025100  0.256900  0.118000  1.0  0.1374
  H  H68  1  0.026400  0.160700  0.123500  1.0  0.1053
  H  H69  1  0.780400  0.399500  0.318300  1.0  0.1101
  H  H70  1  0.901200  0.353100  0.288900  1.0  0.1277
  H  H71  1  0.753100  0.362700  0.022300  1.0  0.1173
  H  H72  1  0.631900  0.407800  0.051600  1.0  0.0933
  H  H73  1  0.441200  0.559500  0.468200  1.0  0.0853
  H  H74  1  0.350400  0.571200  0.318400  1.0  0.1253
  H  H75  1  0.125800  0.518100  0.375200  1.0  0.1144
  H  H76  1  0.222400  0.509700  0.524600  1.0  0.0799
  H  H77  1  0.191200  0.568400  0.194400  1.0  0.0919
  H  H78  1  0.077300  0.488600  0.229000  1.0  0.0977
  H  H79  1  0.988700  0.431500  0.099300  1.0  0.1126
  H  H80  1  0.090500  0.578800  0.055200  1.0  0.1204
  H  H81  1  0.277500  0.338700  0.660700  1.0  0.1071
  H  H82  1  0.278300  0.242000  0.660900  1.0  0.1193
  H  H83  1  0.525100  0.243100  0.618000  1.0  0.1388
  H  H84  1  0.526400  0.339300  0.623500  1.0  0.1049
  H  H85  1  0.280400  0.100500  0.818300  1.0  0.1105
  H  H86  1  0.401200  0.146900  0.788900  1.0  0.1273
  H  H87  1  0.253100  0.137300  0.522300  1.0  0.1176
  H  H88  1  0.131900  0.092200  0.551600  1.0  0.0935
  H  H89  1  0.941200  0.059500  0.468200  1.0  0.0853
  H  H90  1  0.850400  0.071200  0.318400  1.0  0.1253
  H  H91  1  0.625800  0.018100  0.375200  1.0  0.1144
  H  H92  1  0.722400  0.009700  0.524600  1.0  0.0799
  H  H93  1  0.691200  0.068400  0.194400  1.0  0.0919
  H  H94  1  0.577300  0.988600  0.229000  1.0  0.0977
  H  H95  1  0.488700  0.931500  0.099300  1.0  0.1126
  H  H96  1  0.590500  0.078800  0.055200  1.0  0.1204
  H  H97  1  0.777500  0.838700  0.660700  1.0  0.1071
  H  H98  1  0.778300  0.742000  0.660900  1.0  0.1193
  H  H99  1  0.025100  0.743100  0.618000  1.0  0.1388
  H  H100  1  0.026400  0.839300  0.623500  1.0  0.1049
  H  H101  1  0.780400  0.600500  0.818300  1.0  0.1105
  H  H102  1  0.901200  0.646900  0.788900  1.0  0.1273
  H  H103  1  0.753100  0.637300  0.522300  1.0  0.1176
  H  H104  1  0.631900  0.592200  0.551600  1.0  0.0935
  H  H105  1  0.558800  0.559500  0.031800  1.0  0.086
  H  H106  1  0.649600  0.571200  0.181600  1.0  0.1253
  H  H107  1  0.874200  0.518100  0.124800  1.0  0.1143
  H  H108  1  0.777600  0.509700  0.975400  1.0  0.0798
  H  H109  1  0.808800  0.568400  0.305600  1.0  0.0913
  H  H110  1  0.922700  0.488600  0.271000  1.0  0.0977
  H  H111  1  0.011300  0.431500  0.400700  1.0  0.1118
  H  H112  1  0.909500  0.578800  0.444800  1.0  0.1193
  H  H113  1  0.722500  0.338700  0.839300  1.0  0.1084
  H  H114  1  0.721700  0.242000  0.839100  1.0  0.1201
  H  H115  1  0.474900  0.243100  0.882000  1.0  0.1371
  H  H116  1  0.473600  0.339300  0.876500  1.0  0.1052
  H  H117  1  0.719600  0.100500  0.681700  1.0  0.1102
  H  H118  1  0.598800  0.146900  0.711100  1.0  0.127
  H  H119  1  0.746900  0.137300  0.977700  1.0  0.1163
  H  H120  1  0.868100  0.092200  0.948400  1.0  0.0933
  H  H121  1  0.058800  0.059500  0.031800  1.0  0.0857
  H  H122  1  0.149600  0.071200  0.181600  1.0  0.1253
  H  H123  1  0.374200  0.018100  0.124800  1.0  0.1143
  H  H124  1  0.277600  0.009700  0.975400  1.0  0.0798
  H  H125  1  0.308800  0.068400  0.305600  1.0  0.0913
  H  H126  1  0.422700  0.988600  0.271000  1.0  0.0977
  H  H127  1  0.511300  0.931500  0.400700  1.0  0.1118
  H  H128  1  0.409500  0.078800  0.444800  1.0  0.1193
  H  H129  1  0.222500  0.838700  0.839300  1.0  0.1084
  H  H130  1  0.221700  0.742000  0.839100  1.0  0.1201
  H  H131  1  0.974900  0.743100  0.882000  1.0  0.1371
  H  H132  1  0.973600  0.839300  0.876500  1.0  0.1052
  H  H133  1  0.219600  0.600500  0.681700  1.0  0.1102
  H  H134  1  0.098800  0.646900  0.711100  1.0  0.127
  H  H135  1  0.246900  0.637300  0.977700  1.0  0.1163
  H  H136  1  0.368100  0.592200  0.948400  1.0  0.0933
  C  C137  1  0.624000  0.449500  0.551200  1.0  0.1885
  C  C138  1  0.677200  0.442800  0.640900  1.0  -0.2064
  C  C139  1  0.772800  0.456700  0.671700  1.0  0.1324
  C  C140  1  0.808900  0.473600  0.607300  1.0  -0.203
  C  C141  1  0.750800  0.478600  0.518200  1.0  0.1816
  C  C142  1  0.827300  0.456600  0.768800  1.0  -0.1335
  C  C143  1  0.901000  0.489200  0.808900  1.0  -0.1618
  C  C144  1  0.951600  0.493800  0.906500  1.0  0.017
  C  C145  1  0.006400  0.540500  0.940900  1.0  -0.106
  C  C146  1  0.946300  0.453500  0.967100  1.0  -0.1163
  C  C147  1  0.599500  0.590500  0.357000  1.0  0.634
  C  C148  1  0.598000  0.651900  0.357400  1.0  -0.1323
  C  C149  1  0.671700  0.680700  0.347000  1.0  -0.0736
  C  C150  1  0.671800  0.738100  0.347900  1.0  -0.0813
  C  C151  1  0.599300  0.766000  0.361600  1.0  0.2534
  C  C152  1  0.524900  0.737500  0.372700  1.0  -0.1463
  C  C153  1  0.524700  0.680600  0.369800  1.0  -0.0363
  C  C154  1  0.884300  0.935200  0.292500  1.0  0.7113
  C  C155  1  0.806400  0.907300  0.311200  1.0  -0.1128
  C  C156  1  0.726200  0.891600  0.242300  1.0  -0.0427
  C  C157  1  0.654300  0.864100  0.259400  1.0  -0.2164
  C  C158  1  0.665000  0.853100  0.347400  1.0  0.2616
  C  C159  1  0.742000  0.869600  0.417100  1.0  -0.1839
  C  C160  1  0.813300  0.896500  0.399500  1.0  -0.0521
  C  C161  1  0.124000  0.949500  0.551200  1.0  0.1885
  C  C162  1  0.177200  0.942800  0.640900  1.0  -0.2064
  C  C163  1  0.272800  0.956700  0.671700  1.0  0.1324
  C  C164  1  0.308900  0.973600  0.607300  1.0  -0.203
  C  C165  1  0.250800  0.978600  0.518200  1.0  0.1816
  C  C166  1  0.327300  0.956600  0.768800  1.0  -0.1335
  C  C167  1  0.401000  0.989200  0.808900  1.0  -0.1618
  C  C168  1  0.451600  0.993800  0.906500  1.0  0.017
  C  C169  1  0.506400  0.040500  0.940900  1.0  -0.106
  C  C170  1  0.446300  0.953500  0.967100  1.0  -0.1163
  C  C171  1  0.099500  0.090500  0.357000  1.0  0.634
  C  C172  1  0.098000  0.151900  0.357400  1.0  -0.1323
  C  C173  1  0.171700  0.180700  0.347000  1.0  -0.0736
  C  C174  1  0.171800  0.238100  0.347900  1.0  -0.0813
  C  C175  1  0.099300  0.266000  0.361600  1.0  0.2534
  C  C176  1  0.024900  0.237500  0.372700  1.0  -0.1463
  C  C177  1  0.024700  0.180600  0.369800  1.0  -0.0363
  C  C178  1  0.384300  0.435200  0.292500  1.0  0.7113
  C  C179  1  0.306400  0.407300  0.311200  1.0  -0.1128
  C  C180  1  0.226200  0.391600  0.242300  1.0  -0.0427
  C  C181  1  0.154300  0.364100  0.259400  1.0  -0.2164
  C  C182  1  0.165000  0.353100  0.347400  1.0  0.2616
  C  C183  1  0.242000  0.369600  0.417100  1.0  -0.1839
  C  C184  1  0.313300  0.396500  0.399500  1.0  -0.0521
  C  C185  1  0.376000  0.449500  0.948800  1.0  0.1885
  C  C186  1  0.322800  0.442800  0.859100  1.0  -0.2069
  C  C187  1  0.227200  0.456700  0.828300  1.0  0.1323
  C  C188  1  0.191100  0.473600  0.892700  1.0  -0.2048
  C  C189  1  0.249200  0.478600  0.981800  1.0  0.189
  C  C190  1  0.172700  0.456600  0.731200  1.0  -0.1317
  C  C191  1  0.099000  0.489200  0.691100  1.0  -0.1631
  C  C192  1  0.048400  0.493800  0.593500  1.0  0.0208
  C  C193  1  0.993600  0.540500  0.559100  1.0  -0.1007
  C  C194  1  0.053700  0.453500  0.532900  1.0  -0.117
  C  C195  1  0.400500  0.590500  0.143000  1.0  0.6337
  C  C196  1  0.402000  0.651900  0.142600  1.0  -0.1316
  C  C197  1  0.328300  0.680700  0.153000  1.0  -0.0705
  C  C198  1  0.328200  0.738100  0.152100  1.0  -0.0742
  C  C199  1  0.400700  0.766000  0.138400  1.0  0.2529
  C  C200  1  0.475100  0.737500  0.127300  1.0  -0.1453
  C  C201  1  0.475300  0.680600  0.130200  1.0  -0.0367
  C  C202  1  0.115700  0.935200  0.207500  1.0  0.7097
  C  C203  1  0.193600  0.907300  0.188800  1.0  -0.1129
  C  C204  1  0.273800  0.891600  0.257700  1.0  -0.0438
  C  C205  1  0.345700  0.864100  0.240600  1.0  -0.2158
  C  C206  1  0.335000  0.853100  0.152600  1.0  0.2634
  C  C207  1  0.258000  0.869600  0.082900  1.0  -0.1865
  C  C208  1  0.186700  0.896500  0.100500  1.0  -0.0617
  C  C209  1  0.876000  0.949500  0.948800  1.0  0.1885
  C  C210  1  0.822800  0.942800  0.859100  1.0  -0.2069
  C  C211  1  0.727200  0.956700  0.828300  1.0  0.1323
  C  C212  1  0.691100  0.973600  0.892700  1.0  -0.2048
  C  C213  1  0.749200  0.978600  0.981800  1.0  0.189
  C  C214  1  0.672700  0.956600  0.731200  1.0  -0.1317
  C  C215  1  0.599000  0.989200  0.691100  1.0  -0.1631
  C  C216  1  0.548400  0.993800  0.593500  1.0  0.0208
  C  C217  1  0.493600  0.040500  0.559100  1.0  -0.1017
  C  C218  1  0.553700  0.953500  0.532900  1.0  -0.117
  C  C219  1  0.900500  0.090500  0.143000  1.0  0.6334
  C  C220  1  0.902000  0.151900  0.142600  1.0  -0.1316
  C  C221  1  0.828300  0.180700  0.153000  1.0  -0.0705
  C  C222  1  0.828200  0.238100  0.152100  1.0  -0.0742
  C  C223  1  0.900700  0.266000  0.138400  1.0  0.2529
  C  C224  1  0.975100  0.237500  0.127300  1.0  -0.1453
  C  C225  1  0.975300  0.180600  0.130200  1.0  -0.0367
  C  C226  1  0.615700  0.435200  0.207500  1.0  0.7097
  C  C227  1  0.693600  0.407300  0.188800  1.0  -0.1129
  C  C228  1  0.773800  0.391600  0.257700  1.0  -0.0438
  C  C229  1  0.845700  0.364100  0.240600  1.0  -0.2158
  C  C230  1  0.835000  0.353100  0.152600  1.0  0.2634
  C  C231  1  0.758000  0.369600  0.082900  1.0  -0.1865
  C  C232  1  0.686700  0.396500  0.100500  1.0  -0.0617
  C  C233  1  0.376000  0.550500  0.448800  1.0  0.1856
  C  C234  1  0.322800  0.557200  0.359100  1.0  -0.2069
  C  C235  1  0.227200  0.543300  0.328300  1.0  0.1297
  C  C236  1  0.191100  0.526400  0.392700  1.0  -0.2053
  C  C237  1  0.249200  0.521400  0.481800  1.0  0.1895
  C  C238  1  0.172700  0.543400  0.231200  1.0  -0.1315
  C  C239  1  0.099000  0.510800  0.191100  1.0  -0.1637
  C  C240  1  0.048400  0.506200  0.093500  1.0  0.0212
  C  C241  1  0.993600  0.459500  0.059100  1.0  -0.1059
  C  C242  1  0.053700  0.546500  0.032900  1.0  -0.1138
  C  C243  1  0.400500  0.409500  0.643000  1.0  0.634
  C  C244  1  0.402000  0.348100  0.642600  1.0  -0.1317
  C  C245  1  0.328300  0.319300  0.653000  1.0  -0.0708
  C  C246  1  0.328200  0.261900  0.652100  1.0  -0.0776
  C  C247  1  0.400700  0.234000  0.638400  1.0  0.2438
  C  C248  1  0.475100  0.262500  0.627300  1.0  -0.145
  C  C249  1  0.475300  0.319400  0.630200  1.0  -0.0295
  C  C250  1  0.115700  0.064800  0.707500  1.0  0.7096
  C  C251  1  0.193600  0.092700  0.688800  1.0  -0.1118
  C  C252  1  0.273800  0.108400  0.757700  1.0  -0.0435
  C  C253  1  0.345700  0.135900  0.740600  1.0  -0.2153
  C  C254  1  0.335000  0.146900  0.652600  1.0  0.2631
  C  C255  1  0.258000  0.130400  0.582900  1.0  -0.1857
  C  C256  1  0.186700  0.103500  0.600500  1.0  -0.0615
  C  C257  1  0.876000  0.050500  0.448800  1.0  0.1856
  C  C258  1  0.822800  0.057200  0.359100  1.0  -0.2069
  C  C259  1  0.727200  0.043300  0.328300  1.0  0.1297
  C  C260  1  0.691100  0.026400  0.392700  1.0  -0.2053
  C  C261  1  0.749200  0.021400  0.481800  1.0  0.1895
  C  C262  1  0.672700  0.043400  0.231200  1.0  -0.1315
  C  C263  1  0.599000  0.010800  0.191100  1.0  -0.1637
  C  C264  1  0.548400  0.006200  0.093500  1.0  0.0212
  C  C265  1  0.493600  0.959500  0.059100  1.0  -0.1059
  C  C266  1  0.553700  0.046500  0.032900  1.0  -0.1138
  C  C267  1  0.900500  0.909500  0.643000  1.0  0.6357
  C  C268  1  0.902000  0.848100  0.642600  1.0  -0.1317
  C  C269  1  0.828300  0.819300  0.653000  1.0  -0.0708
  C  C270  1  0.828200  0.761900  0.652100  1.0  -0.0776
  C  C271  1  0.900700  0.734000  0.638400  1.0  0.2438
  C  C272  1  0.975100  0.762500  0.627300  1.0  -0.145
  C  C273  1  0.975300  0.819400  0.630200  1.0  -0.0295
  C  C274  1  0.615700  0.564800  0.707500  1.0  0.7096
  C  C275  1  0.693600  0.592700  0.688800  1.0  -0.1118
  C  C276  1  0.773800  0.608400  0.757700  1.0  -0.0435
  C  C277  1  0.845700  0.635900  0.740600  1.0  -0.2153
  C  C278  1  0.835000  0.646900  0.652600  1.0  0.2631
  C  C279  1  0.758000  0.630400  0.582900  1.0  -0.1857
  C  C280  1  0.686700  0.603500  0.600500  1.0  -0.0615
  C  C281  1  0.624000  0.550500  0.051200  1.0  0.1896
  C  C282  1  0.677200  0.557200  0.140900  1.0  -0.2016
  C  C283  1  0.772800  0.543300  0.171700  1.0  0.134
  C  C284  1  0.808900  0.526400  0.107300  1.0  -0.2028
  C  C285  1  0.750800  0.521400  0.018200  1.0  0.1823
  C  C286  1  0.827300  0.543400  0.268800  1.0  -0.1332
  C  C287  1  0.901000  0.510800  0.308900  1.0  -0.1623
  C  C288  1  0.951600  0.506200  0.406500  1.0  0.0208
  C  C289  1  0.006400  0.459500  0.440900  1.0  -0.1078
  C  C290  1  0.946300  0.546500  0.467100  1.0  -0.1142
  C  C291  1  0.599500  0.409500  0.857000  1.0  0.6336
  C  C292  1  0.598000  0.348100  0.857400  1.0  -0.1324
  C  C293  1  0.671700  0.319300  0.847000  1.0  -0.0735
  C  C294  1  0.671800  0.261900  0.847900  1.0  -0.0787
  C  C295  1  0.599300  0.234000  0.861600  1.0  0.2451
  C  C296  1  0.524900  0.262500  0.872700  1.0  -0.1448
  C  C297  1  0.524700  0.319400  0.869800  1.0  -0.0296
  C  C298  1  0.884300  0.064800  0.792500  1.0  0.7118
  C  C299  1  0.806400  0.092700  0.811200  1.0  -0.1122
  C  C300  1  0.726200  0.108400  0.742300  1.0  -0.0414
  C  C301  1  0.654300  0.135900  0.759400  1.0  -0.2168
  C  C302  1  0.665000  0.146900  0.847400  1.0  0.2618
  C  C303  1  0.742000  0.130400  0.917100  1.0  -0.1842
  C  C304  1  0.813300  0.103500  0.899500  1.0  -0.051
  C  C305  1  0.124000  0.050500  0.051200  1.0  0.1896
  C  C306  1  0.177200  0.057200  0.140900  1.0  -0.2016
  C  C307  1  0.272800  0.043300  0.171700  1.0  0.134
  C  C308  1  0.308900  0.026400  0.107300  1.0  -0.2028
  C  C309  1  0.250800  0.021400  0.018200  1.0  0.1823
  C  C310  1  0.327300  0.043400  0.268800  1.0  -0.1332
  C  C311  1  0.401000  0.010800  0.308900  1.0  -0.1623
  C  C312  1  0.451600  0.006200  0.406500  1.0  0.0208
  C  C313  1  0.506400  0.959500  0.440900  1.0  -0.1078
  C  C314  1  0.446300  0.046500  0.467100  1.0  -0.1142
  C  C315  1  0.099500  0.909500  0.857000  1.0  0.6334
  C  C316  1  0.098000  0.848100  0.857400  1.0  -0.1324
  C  C317  1  0.171700  0.819300  0.847000  1.0  -0.0735
  C  C318  1  0.171800  0.761900  0.847900  1.0  -0.0787
  C  C319  1  0.099300  0.734000  0.861600  1.0  0.2451
  C  C320  1  0.024900  0.762500  0.872700  1.0  -0.1448
  C  C321  1  0.024700  0.819400  0.869800  1.0  -0.0296
  C  C322  1  0.384300  0.564800  0.792500  1.0  0.7118
  C  C323  1  0.306400  0.592700  0.811200  1.0  -0.1122
  C  C324  1  0.226200  0.608400  0.742300  1.0  -0.0414
  C  C325  1  0.154300  0.635900  0.759400  1.0  -0.2168
  C  C326  1  0.165000  0.646900  0.847400  1.0  0.2618
  C  C327  1  0.242000  0.630400  0.917100  1.0  -0.1842
  C  C328  1  0.313300  0.603500  0.899500  1.0  -0.051
  N  N329  1  0.658000  0.467820  0.488800  1.0  -0.3448
  N  N330  1  0.158000  0.967820  0.488800  1.0  -0.3448
  N  N331  1  0.342000  0.467820  0.011200  1.0  -0.3429
  N  N332  1  0.842000  0.967820  0.011200  1.0  -0.3429
  N  N333  1  0.342000  0.532180  0.511200  1.0  -0.3409
  N  N334  1  0.842000  0.032180  0.511200  1.0  -0.3409
  N  N335  1  0.658000  0.532180  0.988800  1.0  -0.3439
  N  N336  1  0.158000  0.032180  0.988800  1.0  -0.3439
  O  O337  1  0.671400  0.565560  0.357000  1.0  -0.5968
  O  O338  1  0.527400  0.564220  0.357700  1.0  -0.5756
  O  O339  1  0.593400  0.824110  0.365100  1.0  -0.262
  O  O340  1  0.870000  0.946460  0.211500  1.0  -0.6747
  O  O341  1  0.959500  0.945440  0.357400  1.0  -0.6251
  O  O342  1  0.171400  0.065560  0.357000  1.0  -0.5968
  O  O343  1  0.027400  0.064220  0.357700  1.0  -0.5756
  O  O344  1  0.093400  0.324110  0.365100  1.0  -0.262
  O  O345  1  0.370000  0.446460  0.211500  1.0  -0.6747
  O  O346  1  0.459500  0.445440  0.357400  1.0  -0.6251
  O  O347  1  0.328600  0.565560  0.143000  1.0  -0.597
  O  O348  1  0.472600  0.564220  0.142300  1.0  -0.5729
  O  O349  1  0.406600  0.824110  0.134900  1.0  -0.2615
  O  O350  1  0.130000  0.946460  0.288500  1.0  -0.6767
  O  O351  1  0.040500  0.945440  0.142600  1.0  -0.6263
  O  O352  1  0.828600  0.065560  0.143000  1.0  -0.597
  O  O353  1  0.972600  0.064220  0.142300  1.0  -0.5732
  O  O354  1  0.906600  0.324110  0.134900  1.0  -0.2615
  O  O355  1  0.630000  0.446460  0.288500  1.0  -0.6767
  O  O356  1  0.540500  0.445440  0.142600  1.0  -0.6263
  O  O357  1  0.328600  0.434440  0.643000  1.0  -0.597
  O  O358  1  0.472600  0.435780  0.642300  1.0  -0.5727
  O  O359  1  0.406600  0.175890  0.634900  1.0  -0.2613
  O  O360  1  0.130000  0.053540  0.788500  1.0  -0.6788
  O  O361  1  0.040500  0.054560  0.642600  1.0  -0.6273
  O  O362  1  0.828600  0.934440  0.643000  1.0  -0.597
  O  O363  1  0.972600  0.935780  0.642300  1.0  -0.5727
  O  O364  1  0.906600  0.675890  0.634900  1.0  -0.2613
  O  O365  1  0.630000  0.553540  0.788500  1.0  -0.6788
  O  O366  1  0.540500  0.554560  0.642600  1.0  -0.6273
  O  O367  1  0.671400  0.434440  0.857000  1.0  -0.5967
  O  O368  1  0.527400  0.435780  0.857700  1.0  -0.5751
  O  O369  1  0.593400  0.175890  0.865100  1.0  -0.2619
  O  O370  1  0.870000  0.053540  0.711500  1.0  -0.6771
  O  O371  1  0.959500  0.054560  0.857400  1.0  -0.6262
  O  O372  1  0.171400  0.934440  0.857000  1.0  -0.5967
  O  O373  1  0.027400  0.935780  0.857700  1.0  -0.5751
  O  O374  1  0.093400  0.675890  0.865100  1.0  -0.2619
  O  O375  1  0.370000  0.553540  0.711500  1.0  -0.6775
  O  O376  1  0.459500  0.554560  0.857400  1.0  -0.6262
