# generated using pymatgen
data_EuCd2H2C10(NO2)4
_symmetry_space_group_name_H-M   'P 1'
_cell_length_a   9.77620000
_cell_length_b   9.92770000
_cell_length_c   21.45260000
_cell_angle_alpha   90.00000000
_cell_angle_beta   93.44500000
_cell_angle_gamma   90.00000000
_symmetry_Int_Tables_number   1
_chemical_formula_structural   EuCd2H2C10(NO2)4
_chemical_formula_sum   'Eu4 Cd8 H8 C40 N16 O32'
_cell_volume   2078.32351800
_cell_formula_units_Z   4
loop_
 _symmetry_equiv_pos_site_id
 _symmetry_equiv_pos_as_xyz
  1  'x, y, z'
loop_
 _atom_site_type_symbol
 _atom_site_label
 _atom_site_symmetry_multiplicity
 _atom_site_fract_x
 _atom_site_fract_y
 _atom_site_fract_z
 _atom_site_occupancy
 _atom_site_charge
  Eu  Eu1  1  0.062090  0.811140  0.967770  1.0  2.1179
  Eu  Eu2  1  0.437910  0.311140  0.532230  1.0  2.1161
  Eu  Eu3  1  0.937910  0.188870  0.032230  1.0  2.1155
  Eu  Eu4  1  0.562090  0.688870  0.467770  1.0  2.1177
  Cd  Cd5  1  0.534660  0.965000  0.784380  1.0  0.9872
  Cd  Cd6  1  0.188420  0.459680  0.906270  1.0  0.8094
  Cd  Cd7  1  0.965340  0.465000  0.715620  1.0  0.9872
  Cd  Cd8  1  0.311580  0.959680  0.593730  1.0  0.8056
  Cd  Cd9  1  0.465340  0.035000  0.215620  1.0  0.9871
  Cd  Cd10  1  0.811580  0.540320  0.093730  1.0  0.8064
  Cd  Cd11  1  0.034660  0.535000  0.284380  1.0  0.9872
  Cd  Cd12  1  0.688420  0.040320  0.406270  1.0  0.8104
  H  H13  1  0.670900  0.696600  0.694400  1.0  0.0703
  H  H14  1  0.420400  0.300900  0.809600  1.0  0.0754
  H  H15  1  0.829100  0.196600  0.805600  1.0  0.07
  H  H16  1  0.079600  0.800900  0.690400  1.0  0.0764
  H  H17  1  0.329100  0.303400  0.305600  1.0  0.0698
  H  H18  1  0.579600  0.699100  0.190400  1.0  0.0747
  H  H19  1  0.170900  0.803400  0.194400  1.0  0.0702
  H  H20  1  0.920400  0.199100  0.309600  1.0  0.0746
  C  C21  1  0.765400  0.767900  0.827880  1.0  -0.0032
  C  C22  1  0.753500  0.854100  0.883680  1.0  0.6933
  C  C23  1  0.853000  0.664900  0.813040  1.0  0.0286
  C  C24  1  0.962800  0.591400  0.848460  1.0  0.6563
  C  C25  1  0.714300  0.702600  0.734090  1.0  0.3543
  C  C26  1  0.277100  0.046500  0.852510  1.0  -0.0211
  C  C27  1  0.265400  0.898000  0.850210  1.0  0.7231
  C  C28  1  0.207400  0.150100  0.880440  1.0  0.0061
  C  C29  1  0.098500  0.157200  0.923990  1.0  0.6613
  C  C30  1  0.364700  0.237800  0.827700  1.0  0.3572
  C  C31  1  0.734600  0.267900  0.672120  1.0  -0.0042
  C  C32  1  0.746500  0.354100  0.616320  1.0  0.6941
  C  C33  1  0.647000  0.164900  0.686960  1.0  0.0281
  C  C34  1  0.537200  0.091400  0.651540  1.0  0.6547
  C  C35  1  0.785700  0.202600  0.765910  1.0  0.3539
  C  C36  1  0.222900  0.546500  0.647490  1.0  -0.0209
  C  C37  1  0.234600  0.398000  0.649790  1.0  0.722
  C  C38  1  0.292600  0.650100  0.619560  1.0  0.0071
  C  C39  1  0.401500  0.657200  0.576010  1.0  0.6601
  C  C40  1  0.135300  0.737800  0.672300  1.0  0.3571
  C  C41  1  0.234600  0.232100  0.172120  1.0  -0.0039
  C  C42  1  0.246500  0.145900  0.116320  1.0  0.6945
  C  C43  1  0.147000  0.335100  0.186960  1.0  0.028
  C  C44  1  0.037200  0.408600  0.151540  1.0  0.6548
  C  C45  1  0.285700  0.297400  0.265910  1.0  0.3538
  C  C46  1  0.722900  0.953500  0.147490  1.0  -0.0211
  C  C47  1  0.734600  0.102000  0.149790  1.0  0.7215
  C  C48  1  0.792600  0.849900  0.119560  1.0  0.0078
  C  C49  1  0.901500  0.842800  0.076010  1.0  0.6593
  C  C50  1  0.635300  0.762200  0.172300  1.0  0.3574
  C  C51  1  0.265400  0.732100  0.327880  1.0  -0.0028
  C  C52  1  0.253500  0.645900  0.383680  1.0  0.6942
  C  C53  1  0.353000  0.835100  0.313040  1.0  0.0285
  C  C54  1  0.462800  0.908600  0.348460  1.0  0.6563
  C  C55  1  0.214300  0.797400  0.234090  1.0  0.3545
  C  C56  1  0.777100  0.453500  0.352510  1.0  -0.0213
  C  C57  1  0.765400  0.602000  0.350210  1.0  0.7228
  C  C58  1  0.707400  0.349900  0.380440  1.0  0.0065
  C  C59  1  0.598500  0.342800  0.423990  1.0  0.6603
  C  C60  1  0.864700  0.262200  0.327700  1.0  0.3569
  N  N61  1  0.676300  0.789100  0.777060  1.0  -0.433
  N  N62  1  0.820400  0.625000  0.752930  1.0  -0.4589
  N  N63  1  0.377000  0.104200  0.819160  1.0  -0.4034
  N  N64  1  0.265200  0.271200  0.864440  1.0  -0.4907
  N  N65  1  0.823700  0.289100  0.722940  1.0  -0.4333
  N  N66  1  0.679600  0.125000  0.747070  1.0  -0.4581
  N  N67  1  0.123000  0.604200  0.680840  1.0  -0.4048
  N  N68  1  0.234800  0.771200  0.635560  1.0  -0.4904
  N  N69  1  0.323700  0.210900  0.222940  1.0  -0.4326
  N  N70  1  0.179600  0.375000  0.247070  1.0  -0.4598
  N  N71  1  0.623000  0.895800  0.180840  1.0  -0.4046
  N  N72  1  0.734800  0.728800  0.135560  1.0  -0.4884
  N  N73  1  0.176300  0.710900  0.277060  1.0  -0.4333
  N  N74  1  0.320400  0.875000  0.252930  1.0  -0.4612
  N  N75  1  0.877000  0.395800  0.319160  1.0  -0.4031
  N  N76  1  0.765200  0.228800  0.364440  1.0  -0.4888
  O  O77  1  0.654000  0.933900  0.884110  1.0  -0.607
  O  O78  1  0.840100  0.845500  0.928870  1.0  -0.7154
  O  O79  1  0.995100  0.617100  0.905150  1.0  -0.7445
  O  O80  1  0.024900  0.498700  0.821630  1.0  -0.7117
  O  O81  1  0.347100  0.835700  0.818460  1.0  -0.6229
  O  O82  1  0.171700  0.840400  0.878720  1.0  -0.7223
  O  O83  1  0.043200  0.052900  0.946510  1.0  -0.8542
  O  O84  1  0.057800  0.272200  0.941890  1.0  -0.7519
  O  O85  1  0.846000  0.433900  0.615890  1.0  -0.6036
  O  O86  1  0.659900  0.345500  0.571130  1.0  -0.715
  O  O87  1  0.504900  0.117100  0.594850  1.0  -0.742
  O  O88  1  0.475100  0.998700  0.678370  1.0  -0.7129
  O  O89  1  0.152900  0.335700  0.681540  1.0  -0.6222
  O  O90  1  0.328300  0.340400  0.621280  1.0  -0.7212
  O  O91  1  0.456800  0.552900  0.553490  1.0  -0.8534
  O  O92  1  0.442200  0.772200  0.558110  1.0  -0.7498
  O  O93  1  0.346000  0.066100  0.115890  1.0  -0.6044
  O  O94  1  0.159900  0.154500  0.071130  1.0  -0.715
  O  O95  1  0.004900  0.382900  0.094850  1.0  -0.742
  O  O96  1  0.975100  0.501300  0.178370  1.0  -0.7144
  O  O97  1  0.652900  0.164300  0.181540  1.0  -0.6218
  O  O98  1  0.828300  0.159600  0.121280  1.0  -0.7225
  O  O99  1  0.956800  0.947100  0.053490  1.0  -0.8536
  O  O100  1  0.942200  0.727800  0.058110  1.0  -0.7492
  O  O101  1  0.154000  0.566100  0.384110  1.0  -0.6045
  O  O102  1  0.340100  0.654500  0.428870  1.0  -0.7157
  O  O103  1  0.495100  0.882900  0.405150  1.0  -0.7451
  O  O104  1  0.524900  0.001300  0.321630  1.0  -0.7138
  O  O105  1  0.847100  0.664300  0.318460  1.0  -0.6224
  O  O106  1  0.671700  0.659600  0.378720  1.0  -0.7229
  O  O107  1  0.543200  0.447100  0.446510  1.0  -0.8546
  O  O108  1  0.557800  0.227800  0.441890  1.0  -0.7496
