# generated using pymatgen
data_Dy2H15C12(NO4)3
_symmetry_space_group_name_H-M   'P 1'
_cell_length_a   11.96790000
_cell_length_b   19.20170000
_cell_length_c   19.20170000
_cell_angle_alpha   84.42680000
_cell_angle_beta   71.84210000
_cell_angle_gamma   71.84210000
_symmetry_Int_Tables_number   1
_chemical_formula_structural   Dy2H15C12(NO4)3
_chemical_formula_sum   'Dy16 H120 C96 N24 O96'
_cell_volume   3984.08455273
_cell_formula_units_Z   8
loop_
 _symmetry_equiv_pos_site_id
 _symmetry_equiv_pos_as_xyz
  1  'x, y, z'
loop_
 _atom_site_type_symbol
 _atom_site_label
 _atom_site_symmetry_multiplicity
 _atom_site_fract_x
 _atom_site_fract_y
 _atom_site_fract_z
 _atom_site_occupancy
 _atom_site_charge
  Dy  Dy1  1  0.480380  0.201100  0.637280  1.0  2.2917
  Dy  Dy2  1  0.429800  0.021680  0.605260  1.0  2.2221
  Dy  Dy3  1  0.818760  0.298900  0.862720  1.0  2.2918
  Dy  Dy4  1  0.556740  0.478320  0.894740  1.0  2.223
  Dy  Dy5  1  0.117660  0.362720  0.701100  1.0  2.292
  Dy  Dy6  1  0.035060  0.394740  0.521680  1.0  2.2227
  Dy  Dy7  1  0.681480  0.137280  0.798900  1.0  2.2913
  Dy  Dy8  1  0.451480  0.105260  0.978320  1.0  2.2221
  Dy  Dy9  1  0.519620  0.798900  0.362720  1.0  2.2913
  Dy  Dy10  1  0.570200  0.978320  0.394740  1.0  2.2224
  Dy  Dy11  1  0.181240  0.701100  0.137280  1.0  2.2912
  Dy  Dy12  1  0.443260  0.521680  0.105260  1.0  2.2228
  Dy  Dy13  1  0.882340  0.637280  0.298900  1.0  2.2915
  Dy  Dy14  1  0.964940  0.605260  0.478320  1.0  2.2227
  Dy  Dy15  1  0.318520  0.862720  0.201100  1.0  2.2911
  Dy  Dy16  1  0.548520  0.894740  0.021680  1.0  2.2223
  H  H17  1  0.649500  0.209500  0.438500  1.0  0.1452
  H  H18  1  0.766200  0.143000  0.438400  1.0  0.1217
  H  H19  1  0.799300  0.093800  0.549800  1.0  0.139
  H  H20  1  0.859600  0.157800  0.534600  1.0  0.1068
  H  H21  1  0.545600  0.940100  0.774300  1.0  0.1175
  H  H22  1  0.678500  0.913100  0.719700  1.0  0.1234
  H  H23  1  0.461400  0.840600  0.680800  1.0  0.1168
  H  H24  1  0.487900  0.849400  0.754000  1.0  0.0873
  H  H25  1  0.054300  0.148800  0.670000  1.0  0.1148
  H  H26  1  0.117300  0.099000  0.725400  1.0  0.1221
  H  H27  1  0.099700  0.072300  0.552300  1.0  0.1091
  H  H28  1  0.146700  0.140500  0.549100  1.0  0.1278
  H  H29  1  0.689000  0.237800  0.530800  1.0  0.3086
  H  H30  1  0.610900  0.886100  0.641100  1.0  0.2862
  H  H31  1  0.170700  0.025400  0.637800  1.0  0.3135
  H  H32  1  0.797500  0.290500  0.061500  1.0  0.1478
  H  H33  1  0.847600  0.357000  0.061600  1.0  0.1229
  H  H34  1  0.942900  0.406200  0.950200  1.0  0.1306
  H  H35  1  0.052000  0.342200  0.965400  1.0  0.1118
  H  H36  1  0.760000  0.559900  0.725700  1.0  0.1181
  H  H37  1  0.811300  0.586900  0.780300  1.0  0.1236
  H  H38  1  0.482800  0.659400  0.819200  1.0  0.1184
  H  H39  1  0.591300  0.650600  0.746000  1.0  0.0864
  H  H40  1  0.373100  0.351200  0.830000  1.0  0.1146
  H  H41  1  0.441700  0.401000  0.774600  1.0  0.1225
  H  H42  1  0.224300  0.427700  0.947700  1.0  0.1106
  H  H43  1  0.336300  0.359500  0.950900  1.0  0.1295
  H  H44  1  0.957600  0.262200  0.969200  1.0  0.3124
  H  H45  1  0.638100  0.613900  0.858900  1.0  0.2885
  H  H46  1  0.333900  0.474600  0.862200  1.0  0.3106
  H  H47  1  0.088000  0.561500  0.709500  1.0  0.1458
  H  H48  1  0.204600  0.561600  0.643000  1.0  0.1181
  H  H49  1  0.349100  0.450200  0.593800  1.0  0.1334
  H  H50  1  0.394200  0.465400  0.657800  1.0  0.1095
  H  H51  1  0.319900  0.225700  0.440100  1.0  0.1181
  H  H52  1  0.398200  0.280300  0.413100  1.0  0.123
  H  H53  1  0.142200  0.319200  0.340600  1.0  0.1169
  H  H54  1  0.241900  0.246000  0.349400  1.0  0.0866
  H  H55  1  0.724300  0.330000  0.648800  1.0  0.1163
  H  H56  1  0.842700  0.274600  0.599000  1.0  0.1207
  H  H57  1  0.652000  0.447700  0.572300  1.0  0.1089
  H  H58  1  0.695800  0.450900  0.640500  1.0  0.1237
  H  H59  1  0.219800  0.469200  0.737800  1.0  0.3041
  H  H60  1  0.252000  0.358900  0.386100  1.0  0.2864
  H  H61  1  0.808500  0.362200  0.525400  1.0  0.3094
  H  H62  1  0.859000  0.938500  0.790500  1.0  0.1447
  H  H63  1  0.909200  0.938400  0.857000  1.0  0.1215
  H  H64  1  0.893100  0.049800  0.906200  1.0  0.131
  H  H65  1  0.017400  0.034600  0.842200  1.0  0.1113
  H  H66  1  0.485700  0.274300  0.059900  1.0  0.1175
  H  H67  1  0.591600  0.219700  0.086900  1.0  0.1239
  H  H68  1  0.302000  0.180800  0.159400  1.0  0.1184
  H  H69  1  0.337300  0.254000  0.150600  1.0  0.0862
  H  H70  1  0.203100  0.170000  0.851200  1.0  0.1127
  H  H71  1  0.216300  0.225400  0.901000  1.0  0.1207
  H  H72  1  0.172000  0.052300  0.927700  1.0  0.1119
  H  H73  1  0.287200  0.049100  0.859500  1.0  0.1247
  H  H74  1  0.926800  0.030800  0.762200  1.0  0.298
  H  H75  1  0.497000  0.141100  0.113900  1.0  0.2866
  H  H76  1  0.196100  0.137800  0.974600  1.0  0.3078
  H  H77  1  0.350500  0.790500  0.561500  1.0  0.1473
  H  H78  1  0.233800  0.857000  0.561600  1.0  0.121
  H  H79  1  0.200700  0.906200  0.450200  1.0  0.1338
  H  H80  1  0.140400  0.842200  0.465400  1.0  0.1013
  H  H81  1  0.454400  0.059900  0.225700  1.0  0.1173
  H  H82  1  0.321500  0.086900  0.280300  1.0  0.1236
  H  H83  1  0.538600  0.159400  0.319200  1.0  0.1159
  H  H84  1  0.512100  0.150600  0.246000  1.0  0.0877
  H  H85  1  0.945700  0.851200  0.330000  1.0  0.1154
  H  H86  1  0.882700  0.901000  0.274600  1.0  0.1225
  H  H87  1  0.900300  0.927700  0.447700  1.0  0.1094
  H  H88  1  0.853300  0.859500  0.450900  1.0  0.13
  H  H89  1  0.311000  0.762200  0.469200  1.0  0.3123
  H  H90  1  0.389100  0.113900  0.358900  1.0  0.2868
  H  H91  1  0.829300  0.974600  0.362200  1.0  0.3095
  H  H92  1  0.202500  0.709500  0.938500  1.0  0.1454
  H  H93  1  0.152400  0.643000  0.938400  1.0  0.1226
  H  H94  1  0.057100  0.593800  0.049800  1.0  0.1361
  H  H95  1  0.948000  0.657800  0.034600  1.0  0.1109
  H  H96  1  0.240000  0.440100  0.274300  1.0  0.1186
  H  H97  1  0.188700  0.413100  0.219700  1.0  0.1234
  H  H98  1  0.517200  0.340600  0.180800  1.0  0.1174
  H  H99  1  0.408700  0.349400  0.254000  1.0  0.0861
  H  H100  1  0.626900  0.648800  0.170000  1.0  0.1146
  H  H101  1  0.558300  0.599000  0.225400  1.0  0.1222
  H  H102  1  0.775700  0.572300  0.052300  1.0  0.1096
  H  H103  1  0.663700  0.640500  0.049100  1.0  0.1272
  H  H104  1  0.042400  0.737800  0.030800  1.0  0.3076
  H  H105  1  0.361900  0.386100  0.141100  1.0  0.2891
  H  H106  1  0.666100  0.525400  0.137800  1.0  0.3138
  H  H107  1  0.912000  0.438500  0.290500  1.0  0.1459
  H  H108  1  0.795400  0.438400  0.357000  1.0  0.1212
  H  H109  1  0.650900  0.549800  0.406200  1.0  0.1296
  H  H110  1  0.605800  0.534600  0.342200  1.0  0.1077
  H  H111  1  0.680100  0.774300  0.559900  1.0  0.1185
  H  H112  1  0.601800  0.719700  0.586900  1.0  0.124
  H  H113  1  0.857800  0.680800  0.659400  1.0  0.1161
  H  H114  1  0.758100  0.754000  0.650600  1.0  0.0865
  H  H115  1  0.275700  0.670000  0.351200  1.0  0.1179
  H  H116  1  0.157300  0.725400  0.401000  1.0  0.1212
  H  H117  1  0.348000  0.552300  0.427700  1.0  0.1099
  H  H118  1  0.304200  0.549100  0.359500  1.0  0.1246
  H  H119  1  0.780200  0.530800  0.262200  1.0  0.2982
  H  H120  1  0.748000  0.641100  0.613900  1.0  0.2871
  H  H121  1  0.191500  0.637800  0.474600  1.0  0.3088
  H  H122  1  0.141000  0.061500  0.209500  1.0  0.1448
  H  H123  1  0.090800  0.061600  0.143000  1.0  0.1193
  H  H124  1  0.106900  0.950200  0.093800  1.0  0.1327
  H  H125  1  0.982600  0.965400  0.157800  1.0  0.1102
  H  H126  1  0.514300  0.725700  0.940100  1.0  0.1179
  H  H127  1  0.408400  0.780300  0.913100  1.0  0.1252
  H  H128  1  0.698000  0.819200  0.840600  1.0  0.1165
  H  H129  1  0.662700  0.746000  0.849400  1.0  0.0863
  H  H130  1  0.796900  0.830000  0.148800  1.0  0.114
  H  H131  1  0.783700  0.774600  0.099000  1.0  0.1209
  H  H132  1  0.828000  0.947700  0.072300  1.0  0.1115
  H  H133  1  0.712800  0.950900  0.140500  1.0  0.1232
  H  H134  1  0.073200  0.969200  0.237800  1.0  0.3026
  H  H135  1  0.503000  0.858900  0.886100  1.0  0.287
  H  H136  1  0.803900  0.862200  0.025400  1.0  0.308
  C  C137  1  0.606000  0.115400  0.478000  1.0  0.7844
  C  C138  1  0.682000  0.167300  0.466300  1.0  -0.1673
  C  C139  1  0.785700  0.144500  0.561100  1.0  -0.1479
  C  C140  1  0.760800  0.152500  0.642300  1.0  0.7251
  C  C141  1  0.598000  0.023200  0.711400  1.0  0.8148
  C  C142  1  0.595300  0.944300  0.724300  1.0  -0.1544
  C  C143  1  0.461100  0.876000  0.713600  1.0  -0.1452
  C  C144  1  0.332100  0.926700  0.742900  1.0  0.7058
  C  C145  1  0.206500  0.173400  0.673800  1.0  0.8074
  C  C146  1  0.132900  0.121700  0.677300  1.0  -0.168
  C  C147  1  0.169900  0.087400  0.552200  1.0  -0.1431
  C  C148  1  0.274500  0.056000  0.486600  1.0  0.7123
  C  C149  1  0.699400  0.384600  0.022000  1.0  0.7843
  C  C150  1  0.815600  0.332700  0.033700  1.0  -0.1657
  C  C151  1  0.991300  0.355500  0.938900  1.0  -0.1476
  C  C152  1  0.055600  0.347500  0.857700  1.0  0.7265
  C  C153  1  0.832600  0.476800  0.788600  1.0  0.8149
  C  C154  1  0.763900  0.555700  0.775700  1.0  -0.154
  C  C155  1  0.550700  0.624000  0.786400  1.0  -0.145
  C  C156  1  0.501700  0.573300  0.757100  1.0  0.7072
  C  C157  1  0.553700  0.326600  0.826200  1.0  0.8052
  C  C158  1  0.431900  0.378300  0.822700  1.0  -0.1669
  C  C159  1  0.309500  0.412600  0.947800  1.0  -0.1443
  C  C160  1  0.317100  0.444000  0.013400  1.0  0.7118
  C  C161  1  0.084000  0.522000  0.615400  1.0  0.788
  C  C162  1  0.148300  0.533700  0.667300  1.0  -0.1644
  C  C163  1  0.346800  0.438900  0.644500  1.0  -0.1505
  C  C164  1  0.403100  0.357700  0.652500  1.0  0.7242
  C  C165  1  0.309400  0.288600  0.523200  1.0  0.8144
  C  C166  1  0.319600  0.275700  0.444300  1.0  -0.1559
  C  C167  1  0.174700  0.286400  0.376000  1.0  -0.144
  C  C168  1  0.075000  0.257100  0.426700  1.0  0.7054
  C  C169  1  0.880300  0.326200  0.673400  1.0  0.8098
  C  C170  1  0.810200  0.322700  0.621700  1.0  -0.1684
  C  C171  1  0.722100  0.447800  0.587400  1.0  -0.1385
  C  C172  1  0.761100  0.513400  0.556000  1.0  0.7092
  C  C173  1  0.721400  0.978000  0.884600  1.0  0.7847
  C  C174  1  0.849300  0.966300  0.832700  1.0  -0.1645
  C  C175  1  0.930200  0.061100  0.855500  1.0  -0.1504
  C  C176  1  0.913300  0.142300  0.847500  1.0  0.7244
  C  C177  1  0.621200  0.211400  0.976800  1.0  0.8139
  C  C178  1  0.539600  0.224300  0.055700  1.0  -0.1536
  C  C179  1  0.337100  0.213600  0.124000  1.0  -0.148
  C  C180  1  0.258800  0.242900  0.073300  1.0  0.7066
  C  C181  1  0.379900  0.173800  0.826600  1.0  0.806
  C  C182  1  0.254600  0.177300  0.878300  1.0  -0.1654
  C  C183  1  0.257300  0.052200  0.912600  1.0  -0.1416
  C  C184  1  0.330500  0.986600  0.944000  1.0  0.7108
  C  C185  1  0.394000  0.884600  0.522000  1.0  0.7845
  C  C186  1  0.318000  0.832700  0.533700  1.0  -0.1676
  C  C187  1  0.214300  0.855500  0.438900  1.0  -0.1481
  C  C188  1  0.239200  0.847500  0.357700  1.0  0.7264
  C  C189  1  0.402000  0.976800  0.288600  1.0  0.8159
  C  C190  1  0.404700  0.055700  0.275700  1.0  -0.1535
  C  C191  1  0.538900  0.124000  0.286400  1.0  -0.1459
  C  C192  1  0.667900  0.073300  0.257100  1.0  0.7026
  C  C193  1  0.793500  0.826600  0.326200  1.0  0.8083
  C  C194  1  0.867100  0.878300  0.322700  1.0  -0.1676
  C  C195  1  0.830100  0.912600  0.447800  1.0  -0.1424
  C  C196  1  0.725500  0.944000  0.513400  1.0  0.7117
  C  C197  1  0.300600  0.615400  0.978000  1.0  0.7841
  C  C198  1  0.184400  0.667300  0.966300  1.0  -0.1665
  C  C199  1  0.008700  0.644500  0.061100  1.0  -0.147
  C  C200  1  0.944400  0.652500  0.142300  1.0  0.7261
  C  C201  1  0.167400  0.523200  0.211400  1.0  0.8164
  C  C202  1  0.236100  0.444300  0.224300  1.0  -0.1532
  C  C203  1  0.449300  0.376000  0.213600  1.0  -0.1449
  C  C204  1  0.498300  0.426700  0.242900  1.0  0.7055
  C  C205  1  0.446300  0.673400  0.173800  1.0  0.8058
  C  C206  1  0.568100  0.621700  0.177300  1.0  -0.1689
  C  C207  1  0.690500  0.587400  0.052200  1.0  -0.1425
  C  C208  1  0.682900  0.556000  0.986600  1.0  0.7121
  C  C209  1  0.916000  0.478000  0.384600  1.0  0.7855
  C  C210  1  0.851700  0.466300  0.332700  1.0  -0.1642
  C  C211  1  0.653200  0.561100  0.355500  1.0  -0.1507
  C  C212  1  0.596900  0.642300  0.347500  1.0  0.7236
  C  C213  1  0.690600  0.711400  0.476800  1.0  0.8158
  C  C214  1  0.680400  0.724300  0.555700  1.0  -0.1547
  C  C215  1  0.825300  0.713600  0.624000  1.0  -0.1437
  C  C216  1  0.925000  0.742900  0.573300  1.0  0.7024
  C  C217  1  0.119700  0.673800  0.326600  1.0  0.8088
  C  C218  1  0.189800  0.677300  0.378300  1.0  -0.1698
  C  C219  1  0.277900  0.552200  0.412600  1.0  -0.1398
  C  C220  1  0.238900  0.486600  0.444000  1.0  0.7098
  C  C221  1  0.278600  0.022000  0.115400  1.0  0.7846
  C  C222  1  0.150700  0.033700  0.167300  1.0  -0.1642
  C  C223  1  0.069800  0.938900  0.144500  1.0  -0.1505
  C  C224  1  0.086700  0.857700  0.152500  1.0  0.7246
  C  C225  1  0.378800  0.788600  0.023200  1.0  0.8148
  C  C226  1  0.460400  0.775700  0.944300  1.0  -0.1541
  C  C227  1  0.662900  0.786400  0.876000  1.0  -0.1435
  C  C228  1  0.741200  0.757100  0.926700  1.0  0.705
  C  C229  1  0.620100  0.826200  0.173400  1.0  0.807
  C  C230  1  0.745400  0.822700  0.121700  1.0  -0.1658
  C  C231  1  0.742700  0.947800  0.087400  1.0  -0.1411
  C  C232  1  0.669500  0.013400  0.056000  1.0  0.7098
  N  N233  1  0.680100  0.192100  0.537700  1.0  -0.5335
  N  N234  1  0.546700  0.916500  0.674500  1.0  -0.5268
  N  N235  1  0.198900  0.064600  0.621200  1.0  -0.5094
  N  N236  1  0.909900  0.307900  0.962300  1.0  -0.5356
  N  N237  1  0.637700  0.583500  0.825500  1.0  -0.5288
  N  N238  1  0.384700  0.435400  0.878800  1.0  -0.5139
  N  N239  1  0.217800  0.462300  0.692100  1.0  -0.5346
  N  N240  1  0.221200  0.325500  0.416500  1.0  -0.5332
  N  N241  1  0.820100  0.378800  0.564600  1.0  -0.5086
  N  N242  1  0.872200  0.037700  0.807900  1.0  -0.5349
  N  N243  1  0.463200  0.174500  0.083500  1.0  -0.5345
  N  N244  1  0.263500  0.121200  0.935400  1.0  -0.5109
  N  N245  1  0.319900  0.807900  0.462300  1.0  -0.531
  N  N246  1  0.453300  0.083500  0.325500  1.0  -0.5269
  N  N247  1  0.801100  0.935400  0.378800  1.0  -0.5092
  N  N248  1  0.090100  0.692100  0.037700  1.0  -0.5389
  N  N249  1  0.362300  0.416500  0.174500  1.0  -0.5276
  N  N250  1  0.615300  0.564600  0.121200  1.0  -0.5117
  N  N251  1  0.782200  0.537700  0.307900  1.0  -0.537
  N  N252  1  0.778800  0.674500  0.583500  1.0  -0.5324
  N  N253  1  0.179900  0.621200  0.435400  1.0  -0.5108
  N  N254  1  0.127800  0.962300  0.192100  1.0  -0.5349
  N  N255  1  0.536800  0.825500  0.916500  1.0  -0.5336
  N  N256  1  0.736500  0.878800  0.064600  1.0  -0.511
  O  O257  1  0.537600  0.109400  0.541400  1.0  -0.7979
  O  O258  1  0.611900  0.083500  0.422500  1.0  -0.6953
  O  O259  1  0.647600  0.180200  0.681200  1.0  -0.8645
  O  O260  1  0.841100  0.126200  0.673200  1.0  -0.6327
  O  O261  1  0.530200  0.064300  0.675500  1.0  -0.8214
  O  O262  1  0.664700  0.041000  0.740800  1.0  -0.7175
  O  O263  1  0.315700  0.991500  0.722100  1.0  -0.7452
  O  O264  1  0.250800  0.895800  0.776200  1.0  -0.6392
  O  O265  1  0.323900  0.147600  0.644200  1.0  -0.8313
  O  O266  1  0.153900  0.236800  0.697200  1.0  -0.6921
  O  O267  1  0.385900  0.043700  0.490100  1.0  -0.8803
  O  O268  1  0.254900  0.042300  0.430700  1.0  -0.5715
  O  O269  1  0.688400  0.390600  0.958600  1.0  -0.797
  O  O270  1  0.617900  0.416500  0.077500  1.0  -0.6938
  O  O271  1  0.009000  0.319800  0.818800  1.0  -0.8657
  O  O272  1  0.140500  0.373800  0.826800  1.0  -0.6317
  O  O273  1  0.770000  0.435700  0.824500  1.0  -0.8218
  O  O274  1  0.946500  0.459000  0.759200  1.0  -0.7165
  O  O275  1  0.529300  0.508500  0.777900  1.0  -0.7441
  O  O276  1  0.422800  0.604200  0.723800  1.0  -0.6436
  O  O277  1  0.615700  0.352400  0.855800  1.0  -0.8323
  O  O278  1  0.587900  0.263200  0.802800  1.0  -0.6924
  O  O279  1  0.419700  0.456300  0.009900  1.0  -0.8804
  O  O280  1  0.227900  0.457700  0.069300  1.0  -0.5709
  O  O281  1  0.079000  0.458600  0.609400  1.0  -0.798
  O  O282  1  0.034400  0.577500  0.583500  1.0  -0.6943
  O  O283  1  0.328800  0.318800  0.680200  1.0  -0.8642
  O  O284  1  0.514300  0.326800  0.626200  1.0  -0.6318
  O  O285  1  0.205700  0.324500  0.564300  1.0  -0.8206
  O  O286  1  0.405500  0.259200  0.541000  1.0  -0.7171
  O  O287  1  0.037800  0.277900  0.491500  1.0  -0.748
  O  O288  1  0.027000  0.223800  0.395800  1.0  -0.646
  O  O289  1  0.968100  0.355800  0.647600  1.0  -0.8316
  O  O290  1  0.851100  0.302800  0.736800  1.0  -0.6918
  O  O291  1  0.876000  0.509900  0.543700  1.0  -0.8799
  O  O292  1  0.685600  0.569300  0.542300  1.0  -0.572
  O  O293  1  0.647000  0.041400  0.890600  1.0  -0.7985
  O  O294  1  0.695400  0.922500  0.916500  1.0  -0.696
  O  O295  1  0.827800  0.181200  0.819800  1.0  -0.8673
  O  O296  1  0.967300  0.173200  0.873800  1.0  -0.632
  O  O297  1  0.594500  0.175500  0.935700  1.0  -0.8217
  O  O298  1  0.705700  0.240800  0.959000  1.0  -0.7171
  O  O299  1  0.307200  0.222100  0.008500  1.0  -0.7472
  O  O300  1  0.146600  0.276200  0.104200  1.0  -0.64
  O  O301  1  0.471500  0.144200  0.852400  1.0  -0.8322
  O  O302  1  0.390700  0.197200  0.763200  1.0  -0.6921
  O  O303  1  0.429600  0.990100  0.956300  1.0  -0.88
  O  O304  1  0.297200  0.930700  0.957700  1.0  -0.5706
  O  O305  1  0.462400  0.890600  0.458600  1.0  -0.7978
  O  O306  1  0.388100  0.916500  0.577500  1.0  -0.6949
  O  O307  1  0.352400  0.819800  0.318800  1.0  -0.865
  O  O308  1  0.158900  0.873800  0.326800  1.0  -0.6324
  O  O309  1  0.469800  0.935700  0.324500  1.0  -0.8228
  O  O310  1  0.335300  0.959000  0.259200  1.0  -0.719
  O  O311  1  0.684300  0.008500  0.277900  1.0  -0.7446
  O  O312  1  0.749200  0.104200  0.223800  1.0  -0.64
  O  O313  1  0.676100  0.852400  0.355800  1.0  -0.831
  O  O314  1  0.846100  0.763200  0.302800  1.0  -0.6918
  O  O315  1  0.614100  0.956300  0.509900  1.0  -0.8802
  O  O316  1  0.745100  0.957700  0.569300  1.0  -0.5718
  O  O317  1  0.311600  0.609400  0.041400  1.0  -0.7974
  O  O318  1  0.382100  0.583500  0.922500  1.0  -0.6954
  O  O319  1  0.991000  0.680200  0.181200  1.0  -0.8656
  O  O320  1  0.859500  0.626200  0.173200  1.0  -0.632
  O  O321  1  0.230000  0.564300  0.175500  1.0  -0.822
  O  O322  1  0.053500  0.541000  0.240800  1.0  -0.7187
  O  O323  1  0.470700  0.491500  0.222100  1.0  -0.7437
  O  O324  1  0.577200  0.395800  0.276200  1.0  -0.6462
  O  O325  1  0.384300  0.647600  0.144200  1.0  -0.8317
  O  O326  1  0.412100  0.736800  0.197200  1.0  -0.6926
  O  O327  1  0.580300  0.543700  0.990100  1.0  -0.8809
  O  O328  1  0.772100  0.542300  0.930700  1.0  -0.5708
  O  O329  1  0.921000  0.541400  0.390600  1.0  -0.7979
  O  O330  1  0.965600  0.422500  0.416500  1.0  -0.6957
  O  O331  1  0.671200  0.681200  0.319800  1.0  -0.8656
  O  O332  1  0.485700  0.673200  0.373800  1.0  -0.6312
  O  O333  1  0.794300  0.675500  0.435700  1.0  -0.8211
  O  O334  1  0.594500  0.740800  0.459000  1.0  -0.7203
  O  O335  1  0.962200  0.722100  0.508500  1.0  -0.7445
  O  O336  1  0.973000  0.776200  0.604200  1.0  -0.6456
  O  O337  1  0.031900  0.644200  0.352400  1.0  -0.8314
  O  O338  1  0.148900  0.697200  0.263200  1.0  -0.6917
  O  O339  1  0.124000  0.490100  0.456300  1.0  -0.8804
  O  O340  1  0.314400  0.430700  0.457700  1.0  -0.5717
  O  O341  1  0.353000  0.958600  0.109400  1.0  -0.7985
  O  O342  1  0.304600  0.077500  0.083500  1.0  -0.696
  O  O343  1  0.172200  0.818800  0.180200  1.0  -0.8655
  O  O344  1  0.032700  0.826800  0.126200  1.0  -0.6312
  O  O345  1  0.405500  0.824500  0.064300  1.0  -0.8219
  O  O346  1  0.294300  0.759200  0.041000  1.0  -0.7185
  O  O347  1  0.692800  0.777900  0.991500  1.0  -0.7473
  O  O348  1  0.853400  0.723800  0.895800  1.0  -0.6408
  O  O349  1  0.528500  0.855800  0.147600  1.0  -0.8309
  O  O350  1  0.609300  0.802800  0.236800  1.0  -0.6918
  O  O351  1  0.570400  0.009900  0.043700  1.0  -0.88
  O  O352  1  0.702800  0.069300  0.042300  1.0  -0.5704
