# generated using pymatgen
data_Nd2H15C12(NO4)3
_symmetry_space_group_name_H-M   'P 1'
_cell_length_a   12.07330000
_cell_length_b   19.50770000
_cell_length_c   19.50770000
_cell_angle_alpha   84.50490000
_cell_angle_beta   71.97390000
_cell_angle_gamma   71.97380000
_symmetry_Int_Tables_number   1
_chemical_formula_structural   Nd2H15C12(NO4)3
_chemical_formula_sum   'Nd16 H120 C96 N24 O96'
_cell_volume   4154.52974391
_cell_formula_units_Z   8
loop_
 _symmetry_equiv_pos_site_id
 _symmetry_equiv_pos_as_xyz
  1  'x, y, z'
loop_
 _atom_site_type_symbol
 _atom_site_label
 _atom_site_symmetry_multiplicity
 _atom_site_fract_x
 _atom_site_fract_y
 _atom_site_fract_z
 _atom_site_occupancy
 _atom_site_charge
  Nd  Nd1  1  0.987300  0.202040  0.637000  1.0  2.2948
  Nd  Nd2  1  0.931190  0.020540  0.605840  1.0  2.2208
  Nd  Nd3  1  0.326340  0.297960  0.863000  1.0  2.2944
  Nd  Nd4  1  0.057570  0.479460  0.894160  1.0  2.2217
  Nd  Nd5  1  0.624300  0.363000  0.702040  1.0  2.2946
  Nd  Nd6  1  0.537020  0.394170  0.520540  1.0  2.2218
  Nd  Nd7  1  0.189340  0.137000  0.797960  1.0  2.2948
  Nd  Nd8  1  0.951730  0.105840  0.979460  1.0  2.2209
  Nd  Nd9  1  0.012700  0.797960  0.363000  1.0  2.2949
  Nd  Nd10  1  0.068810  0.979460  0.394160  1.0  2.2216
  Nd  Nd11  1  0.673660  0.702040  0.137000  1.0  2.2954
  Nd  Nd12  1  0.942430  0.520540  0.105840  1.0  2.2217
  Nd  Nd13  1  0.375700  0.637000  0.297960  1.0  2.2948
  Nd  Nd14  1  0.462980  0.605830  0.479460  1.0  2.222
  Nd  Nd15  1  0.810660  0.863000  0.202040  1.0  2.2949
  Nd  Nd16  1  0.048260  0.894170  0.020540  1.0  2.2219
  H  H17  1  0.159000  0.206900  0.439700  1.0  0.1443
  H  H18  1  0.272500  0.139700  0.437700  1.0  0.1271
  H  H19  1  0.304600  0.090300  0.549900  1.0  0.1367
  H  H20  1  0.369300  0.151000  0.534200  1.0  0.1125
  H  H21  1  0.038700  0.945000  0.777800  1.0  0.1218
  H  H22  1  0.172100  0.913900  0.727900  1.0  0.1224
  H  H23  1  0.966900  0.839900  0.684300  1.0  0.116
  H  H24  1  0.985300  0.851700  0.758100  1.0  0.0923
  H  H25  1  0.555800  0.152000  0.669400  1.0  0.1202
  H  H26  1  0.619500  0.101100  0.722300  1.0  0.1273
  H  H27  1  0.599100  0.073000  0.551200  1.0  0.1134
  H  H28  1  0.642200  0.141400  0.548400  1.0  0.1257
  H  H29  1  0.206400  0.231600  0.528600  1.0  0.3145
  H  H30  1  0.110900  0.887600  0.647800  1.0  0.282
  H  H31  1  0.664800  0.030300  0.635900  1.0  0.3042
  H  H32  1  0.305600  0.293100  0.060300  1.0  0.1465
  H  H33  1  0.349900  0.360300  0.062300  1.0  0.1283
  H  H34  1  0.444800  0.409700  0.950100  1.0  0.1323
  H  H35  1  0.554500  0.349000  0.965800  1.0  0.1154
  H  H36  1  0.261500  0.555000  0.722200  1.0  0.121
  H  H37  1  0.313900  0.586100  0.772100  1.0  0.122
  H  H38  1  0.991100  0.660100  0.815700  1.0  0.1171
  H  H39  1  0.095100  0.648300  0.741900  1.0  0.0908
  H  H40  1  0.877200  0.348000  0.830600  1.0  0.1196
  H  H41  1  0.942900  0.398900  0.777700  1.0  0.1278
  H  H42  1  0.723300  0.427000  0.948800  1.0  0.1112
  H  H43  1  0.832000  0.358600  0.951600  1.0  0.1269
  H  H44  1  0.466600  0.268400  0.971400  1.0  0.3162
  H  H45  1  0.146300  0.612400  0.852200  1.0  0.2842
  H  H46  1  0.831000  0.469700  0.864100  1.0  0.3007
  H  H47  1  0.598700  0.560300  0.706900  1.0  0.1446
  H  H48  1  0.710200  0.562300  0.639700  1.0  0.1251
  H  H49  1  0.854500  0.450100  0.590300  1.0  0.1333
  H  H50  1  0.903500  0.465800  0.651000  1.0  0.1153
  H  H51  1  0.816500  0.222200  0.445000  1.0  0.1248
  H  H52  1  0.900000  0.272100  0.413900  1.0  0.1218
  H  H53  1  0.651200  0.315700  0.339900  1.0  0.1153
  H  H54  1  0.743400  0.241900  0.351700  1.0  0.0904
  H  H55  1  0.225200  0.330600  0.652000  1.0  0.1206
  H  H56  1  0.341800  0.277700  0.601100  1.0  0.1263
  H  H57  1  0.150300  0.448800  0.573000  1.0  0.1128
  H  H58  1  0.190600  0.451600  0.641400  1.0  0.1229
  H  H59  1  0.735000  0.471400  0.731600  1.0  0.3099
  H  H60  1  0.758700  0.352200  0.387600  1.0  0.2823
  H  H61  1  0.300700  0.364100  0.530300  1.0  0.305
  H  H62  1  0.365900  0.939700  0.793100  1.0  0.1449
  H  H63  1  0.412200  0.937700  0.860300  1.0  0.1271
  H  H64  1  0.394900  0.049900  0.909700  1.0  0.132
  H  H65  1  0.520300  0.034200  0.849000  1.0  0.1152
  H  H66  1  0.983700  0.277800  0.055000  1.0  0.1232
  H  H67  1  0.086000  0.227900  0.086100  1.0  0.1237
  H  H68  1  0.806800  0.184300  0.160100  1.0  0.117
  H  H69  1  0.837000  0.258100  0.148300  1.0  0.0908
  H  H70  1  0.707800  0.169400  0.848000  1.0  0.1189
  H  H71  1  0.720600  0.222300  0.898900  1.0  0.1272
  H  H72  1  0.672100  0.051200  0.927000  1.0  0.1137
  H  H73  1  0.783600  0.048400  0.858600  1.0  0.1235
  H  H74  1  0.438000  0.028600  0.768400  1.0  0.3097
  H  H75  1  0.998500  0.147800  0.112400  1.0  0.2832
  H  H76  1  0.695100  0.135900  0.969700  1.0  0.3023
  H  H77  1  0.841000  0.793100  0.560300  1.0  0.1457
  H  H78  1  0.727500  0.860300  0.562300  1.0  0.1268
  H  H79  1  0.695400  0.909700  0.450100  1.0  0.1336
  H  H80  1  0.630700  0.849000  0.465800  1.0  0.109
  H  H81  1  0.961300  0.055000  0.222200  1.0  0.121
  H  H82  1  0.827900  0.086100  0.272100  1.0  0.1225
  H  H83  1  0.033100  0.160100  0.315700  1.0  0.1158
  H  H84  1  0.014700  0.148300  0.241900  1.0  0.0924
  H  H85  1  0.444200  0.848000  0.330600  1.0  0.1205
  H  H86  1  0.380500  0.898900  0.277700  1.0  0.1267
  H  H87  1  0.400900  0.927000  0.448800  1.0  0.115
  H  H88  1  0.357800  0.858600  0.451600  1.0  0.1271
  H  H89  1  0.793600  0.768400  0.471400  1.0  0.3167
  H  H90  1  0.889100  0.112400  0.352200  1.0  0.2829
  H  H91  1  0.335200  0.969700  0.364100  1.0  0.3008
  H  H92  1  0.694400  0.706900  0.939700  1.0  0.145
  H  H93  1  0.650100  0.639700  0.937700  1.0  0.1283
  H  H94  1  0.555200  0.590300  0.049900  1.0  0.1345
  H  H95  1  0.445500  0.651000  0.034200  1.0  0.1168
  H  H96  1  0.738500  0.445000  0.277800  1.0  0.1225
  H  H97  1  0.686100  0.413900  0.227900  1.0  0.1222
  H  H98  1  0.008900  0.339900  0.184300  1.0  0.1181
  H  H99  1  0.904900  0.351700  0.258100  1.0  0.0914
  H  H100  1  0.122800  0.652000  0.169400  1.0  0.1195
  H  H101  1  0.057100  0.601100  0.222300  1.0  0.1288
  H  H102  1  0.276700  0.573000  0.051200  1.0  0.1115
  H  H103  1  0.168000  0.641400  0.048400  1.0  0.1244
  H  H104  1  0.533400  0.731600  0.028600  1.0  0.3131
  H  H105  1  0.853700  0.387600  0.147800  1.0  0.2847
  H  H106  1  0.169000  0.530300  0.135900  1.0  0.3066
  H  H107  1  0.401300  0.439700  0.293100  1.0  0.1454
  H  H108  1  0.289800  0.437700  0.360300  1.0  0.126
  H  H109  1  0.145500  0.549900  0.409700  1.0  0.133
  H  H110  1  0.096500  0.534200  0.349000  1.0  0.1146
  H  H111  1  0.183500  0.777800  0.555000  1.0  0.1248
  H  H112  1  0.100000  0.727900  0.586100  1.0  0.1236
  H  H113  1  0.348800  0.684300  0.660100  1.0  0.1161
  H  H114  1  0.256600  0.758100  0.648300  1.0  0.0911
  H  H115  1  0.774800  0.669400  0.348000  1.0  0.1223
  H  H116  1  0.658200  0.722300  0.398900  1.0  0.1269
  H  H117  1  0.849700  0.551200  0.427000  1.0  0.1147
  H  H118  1  0.809400  0.548400  0.358600  1.0  0.1232
  H  H119  1  0.265000  0.528600  0.268400  1.0  0.3097
  H  H120  1  0.241300  0.647800  0.612400  1.0  0.2833
  H  H121  1  0.699300  0.635900  0.469700  1.0  0.306
  H  H122  1  0.634100  0.060300  0.206900  1.0  0.1444
  H  H123  1  0.587800  0.062300  0.139700  1.0  0.1241
  H  H124  1  0.605100  0.950100  0.090300  1.0  0.1294
  H  H125  1  0.479700  0.965800  0.151000  1.0  0.1162
  H  H126  1  0.016300  0.722200  0.945000  1.0  0.1234
  H  H127  1  0.914000  0.772100  0.913900  1.0  0.1239
  H  H128  1  0.193200  0.815700  0.839900  1.0  0.1165
  H  H129  1  0.163000  0.741900  0.851700  1.0  0.0909
  H  H130  1  0.292200  0.830600  0.152000  1.0  0.12
  H  H131  1  0.279400  0.777700  0.101100  1.0  0.1261
  H  H132  1  0.327900  0.948800  0.073000  1.0  0.1122
  H  H133  1  0.216400  0.951600  0.141400  1.0  0.1213
  H  H134  1  0.562000  0.971400  0.231600  1.0  0.3104
  H  H135  1  0.001500  0.852200  0.887600  1.0  0.2835
  H  H136  1  0.304900  0.864100  0.030300  1.0  0.3036
  C  C137  1  0.110950  0.115490  0.478210  1.0  0.7735
  C  C138  1  0.190400  0.164600  0.466400  1.0  -0.1652
  C  C139  1  0.294500  0.139800  0.560400  1.0  -0.1448
  C  C140  1  0.271910  0.147610  0.640570  1.0  0.7196
  C  C141  1  0.101790  0.022050  0.712970  1.0  0.8043
  C  C142  1  0.092100  0.945900  0.729100  1.0  -0.1453
  C  C143  1  0.961800  0.876200  0.716800  1.0  -0.1541
  C  C144  1  0.832700  0.924400  0.741600  1.0  0.6987
  C  C145  1  0.709640  0.173530  0.671790  1.0  0.8083
  C  C146  1  0.634100  0.124000  0.675200  1.0  -0.1711
  C  C147  1  0.667300  0.089200  0.551400  1.0  -0.1428
  C  C148  1  0.772700  0.059500  0.485700  1.0  0.7113
  C  C149  1  0.204650  0.384510  0.021790  1.0  0.7755
  C  C150  1  0.321400  0.335400  0.033600  1.0  -0.1634
  C  C151  1  0.494700  0.360200  0.939600  1.0  -0.1442
  C  C152  1  0.560090  0.352390  0.859430  1.0  0.7193
  C  C153  1  0.336810  0.477950  0.787030  1.0  0.8042
  C  C154  1  0.267100  0.554100  0.770900  1.0  -0.1463
  C  C155  1  0.054800  0.623800  0.783200  1.0  -0.1556
  C  C156  1  0.998700  0.575600  0.758400  1.0  0.7027
  C  C157  1  0.054960  0.326470  0.828210  1.0  0.8076
  C  C158  1  0.933300  0.376000  0.824800  1.0  -0.1695
  C  C159  1  0.807900  0.410800  0.948600  1.0  -0.1419
  C  C160  1  0.817900  0.440500  0.014300  1.0  0.7108
  C  C161  1  0.589160  0.521790  0.615490  1.0  0.7781
  C  C162  1  0.656800  0.533600  0.664600  1.0  -0.1622
  C  C163  1  0.854900  0.439600  0.639800  1.0  -0.1471
  C  C164  1  0.912480  0.359430  0.647610  1.0  0.7186
  C  C165  1  0.814760  0.287030  0.522050  1.0  0.806
  C  C166  1  0.821200  0.270900  0.445900  1.0  -0.1481
  C  C167  1  0.678600  0.283200  0.376200  1.0  -0.1551
  C  C168  1  0.574300  0.258400  0.424400  1.0  0.7008
  C  C169  1  0.381430  0.328210  0.673530  1.0  0.8124
  C  C170  1  0.309300  0.324800  0.624000  1.0  -0.1708
  C  C171  1  0.218700  0.448600  0.589200  1.0  -0.1374
  C  C172  1  0.258400  0.514300  0.559500  1.0  0.7085
  C  C173  1  0.226440  0.978210  0.884510  1.0  0.7741
  C  C174  1  0.355000  0.966400  0.835400  1.0  -0.1608
  C  C175  1  0.434300  0.060400  0.860200  1.0  -0.1461
  C  C176  1  0.419520  0.140570  0.852390  1.0  0.7185
  C  C177  1  0.123840  0.212970  0.977950  1.0  0.8043
  C  C178  1  0.038000  0.229100  0.054100  1.0  -0.1474
  C  C179  1  0.838000  0.216800  0.123800  1.0  -0.1559
  C  C180  1  0.757100  0.241600  0.075600  1.0  0.6993
  C  C181  1  0.883170  0.171790  0.826470  1.0  0.8085
  C  C182  1  0.758100  0.175200  0.876000  1.0  -0.1669
  C  C183  1  0.756500  0.051400  0.910800  1.0  -0.1403
  C  C184  1  0.832200  0.985700  0.940500  1.0  0.7109
  C  C185  1  0.889050  0.884510  0.521790  1.0  0.7743
  C  C186  1  0.809600  0.835400  0.533600  1.0  -0.1661
  C  C187  1  0.705500  0.860200  0.439600  1.0  -0.1457
  C  C188  1  0.728090  0.852390  0.359430  1.0  0.7203
  C  C189  1  0.898210  0.977950  0.287030  1.0  0.805
  C  C190  1  0.907900  0.054100  0.270900  1.0  -0.1456
  C  C191  1  0.038200  0.123800  0.283200  1.0  -0.1557
  C  C192  1  0.167300  0.075600  0.258400  1.0  0.6968
  C  C193  1  0.290360  0.826470  0.328210  1.0  0.8094
  C  C194  1  0.365900  0.876000  0.324800  1.0  -0.1695
  C  C195  1  0.332700  0.910800  0.448600  1.0  -0.1415
  C  C196  1  0.227300  0.940500  0.514300  1.0  0.7107
  C  C197  1  0.795350  0.615490  0.978210  1.0  0.775
  C  C198  1  0.678600  0.664600  0.966400  1.0  -0.1641
  C  C199  1  0.505300  0.639800  0.060400  1.0  -0.1436
  C  C200  1  0.439910  0.647610  0.140570  1.0  0.7187
  C  C201  1  0.663190  0.522050  0.212970  1.0  0.8055
  C  C202  1  0.732900  0.445900  0.229100  1.0  -0.1458
  C  C203  1  0.945200  0.376200  0.216800  1.0  -0.1541
  C  C204  1  0.001300  0.424400  0.241600  1.0  0.7012
  C  C205  1  0.945040  0.673530  0.171790  1.0  0.8088
  C  C206  1  0.066700  0.624000  0.175200  1.0  -0.1712
  C  C207  1  0.192100  0.589200  0.051400  1.0  -0.1412
  C  C208  1  0.182100  0.559500  0.985700  1.0  0.7107
  C  C209  1  0.410840  0.478210  0.384510  1.0  0.7775
  C  C210  1  0.343200  0.466400  0.335400  1.0  -0.1625
  C  C211  1  0.145100  0.560400  0.360200  1.0  -0.1465
  C  C212  1  0.087520  0.640570  0.352390  1.0  0.7174
  C  C213  1  0.185240  0.712970  0.477950  1.0  0.8066
  C  C214  1  0.178800  0.729100  0.554100  1.0  -0.1461
  C  C215  1  0.321400  0.716800  0.623800  1.0  -0.1547
  C  C216  1  0.425700  0.741600  0.575600  1.0  0.6972
  C  C217  1  0.618570  0.671790  0.326470  1.0  0.8116
  C  C218  1  0.690700  0.675200  0.376000  1.0  -0.1711
  C  C219  1  0.781300  0.551400  0.410800  1.0  -0.1402
  C  C220  1  0.741600  0.485700  0.440500  1.0  0.7094
  C  C221  1  0.773560  0.021790  0.115490  1.0  0.7744
  C  C222  1  0.645000  0.033600  0.164600  1.0  -0.1627
  C  C223  1  0.565700  0.939600  0.139800  1.0  -0.1466
  C  C224  1  0.580480  0.859430  0.147610  1.0  0.7186
  C  C225  1  0.876160  0.787030  0.022050  1.0  0.8065
  C  C226  1  0.962000  0.770900  0.945900  1.0  -0.1469
  C  C227  1  0.162000  0.783200  0.876200  1.0  -0.1539
  C  C228  1  0.242900  0.758400  0.924400  1.0  0.6992
  C  C229  1  0.116830  0.828210  0.173530  1.0  0.8086
  C  C230  1  0.241900  0.824800  0.124000  1.0  -0.1674
  C  C231  1  0.243500  0.948600  0.089200  1.0  -0.1399
  C  C232  1  0.167800  0.014300  0.059500  1.0  0.7092
  N  N233  1  0.194150  0.187400  0.535900  1.0  -0.5239
  N  N234  1  0.045930  0.917510  0.679830  1.0  -0.5285
  N  N235  1  0.694810  0.068140  0.619040  1.0  -0.5007
  N  N236  1  0.417450  0.312600  0.964100  1.0  -0.5263
  N  N237  1  0.143270  0.582490  0.820170  1.0  -0.5298
  N  N238  1  0.881990  0.431860  0.880960  1.0  -0.5063
  N  N239  1  0.730050  0.464100  0.687400  1.0  -0.526
  N  N240  1  0.725760  0.320170  0.417510  1.0  -0.5346
  N  N241  1  0.313850  0.380960  0.568140  1.0  -0.5002
  N  N242  1  0.381550  0.035900  0.812600  1.0  -0.5264
  N  N243  1  0.963440  0.179830  0.082490  1.0  -0.5346
  N  N244  1  0.762950  0.119040  0.931860  1.0  -0.5023
  N  N245  1  0.805850  0.812600  0.464100  1.0  -0.5224
  N  N246  1  0.954070  0.082490  0.320170  1.0  -0.5288
  N  N247  1  0.305190  0.931860  0.380960  1.0  -0.5012
  N  N248  1  0.582550  0.687400  0.035900  1.0  -0.5295
  N  N249  1  0.856730  0.417510  0.179830  1.0  -0.5298
  N  N250  1  0.118010  0.568140  0.119040  1.0  -0.5036
  N  N251  1  0.269950  0.535900  0.312600  1.0  -0.5264
  N  N252  1  0.274240  0.679830  0.582490  1.0  -0.5334
  N  N253  1  0.686150  0.619040  0.431860  1.0  -0.5024
  N  N254  1  0.618450  0.964100  0.187400  1.0  -0.5247
  N  N255  1  0.036560  0.820170  0.917510  1.0  -0.5348
  N  N256  1  0.237050  0.880960  0.068140  1.0  -0.5017
  O  O257  1  0.045110  0.108690  0.541290  1.0  -0.803
  O  O258  1  0.114580  0.084720  0.423720  1.0  -0.6983
  O  O259  1  0.162930  0.180710  0.677630  1.0  -0.8567
  O  O260  1  0.352930  0.121430  0.669510  1.0  -0.6297
  O  O261  1  0.035570  0.063640  0.677420  1.0  -0.8219
  O  O262  1  0.170790  0.038840  0.739780  1.0  -0.7143
  O  O263  1  0.812890  0.989370  0.723850  1.0  -0.754
  O  O264  1  0.750900  0.894000  0.773000  1.0  -0.6404
  O  O265  1  0.824810  0.147550  0.643830  1.0  -0.8259
  O  O266  1  0.660080  0.234980  0.697660  1.0  -0.7131
  O  O267  1  0.881730  0.046400  0.490540  1.0  -0.8747
  O  O268  1  0.752390  0.050000  0.430020  1.0  -0.5752
  O  O269  1  0.195090  0.391310  0.958710  1.0  -0.8008
  O  O270  1  0.123020  0.415280  0.076280  1.0  -0.6981
  O  O271  1  0.521270  0.319290  0.822370  1.0  -0.8582
  O  O272  1  0.643870  0.378570  0.830490  1.0  -0.6296
  O  O273  1  0.276630  0.436360  0.822580  1.0  -0.8211
  O  O274  1  0.449410  0.461160  0.760220  1.0  -0.7131
  O  O275  1  0.026110  0.510630  0.776150  1.0  -0.7525
  O  O276  1  0.917900  0.606000  0.727000  1.0  -0.6485
  O  O277  1  0.116190  0.352450  0.856170  1.0  -0.8277
  O  O278  1  0.092720  0.265020  0.802340  1.0  -0.7137
  O  O279  1  0.918670  0.453600  0.009460  1.0  -0.8751
  O  O280  1  0.732410  0.450000  0.069980  1.0  -0.5749
  O  O281  1  0.586400  0.458710  0.608690  1.0  -0.8014
  O  O282  1  0.538300  0.576280  0.584720  1.0  -0.6987
  O  O283  1  0.840560  0.322370  0.680710  1.0  -0.8575
  O  O284  1  0.022440  0.330490  0.621430  1.0  -0.6301
  O  O285  1  0.712990  0.322580  0.563640  1.0  -0.8194
  O  O286  1  0.910570  0.260220  0.538840  1.0  -0.714
  O  O287  1  0.536740  0.276150  0.489370  1.0  -0.7537
  O  O288  1  0.523900  0.227000  0.394000  1.0  -0.6465
  O  O289  1  0.468640  0.356170  0.647550  1.0  -0.8257
  O  O290  1  0.357740  0.302340  0.734980  1.0  -0.7132
  O  O291  1  0.372270  0.509460  0.546400  1.0  -0.8741
  O  O292  1  0.182410  0.569980  0.550000  1.0  -0.5763
  O  O293  1  0.153800  0.041290  0.891310  1.0  -0.8016
  O  O294  1  0.199300  0.923720  0.915280  1.0  -0.6999
  O  O295  1  0.343640  0.177630  0.819290  1.0  -0.859
  O  O296  1  0.474360  0.169510  0.878570  1.0  -0.629
  O  O297  1  0.099210  0.177420  0.936360  1.0  -0.8194
  O  O298  1  0.209630  0.239780  0.961160  1.0  -0.7135
  O  O299  1  0.802260  0.223850  0.010630  1.0  -0.7525
  O  O300  1  0.644900  0.273000  0.106000  1.0  -0.6411
  O  O301  1  0.972360  0.143830  0.852450  1.0  -0.8272
  O  O302  1  0.895060  0.197660  0.765020  1.0  -0.7127
  O  O303  1  0.928130  0.990540  0.953600  1.0  -0.875
  O  O304  1  0.802390  0.930020  0.950000  1.0  -0.5747
  O  O305  1  0.954890  0.891310  0.458710  1.0  -0.8028
  O  O306  1  0.885420  0.915280  0.576280  1.0  -0.6988
  O  O307  1  0.837070  0.819290  0.322370  1.0  -0.8567
  O  O308  1  0.647070  0.878570  0.330490  1.0  -0.6296
  O  O309  1  0.964430  0.936360  0.322580  1.0  -0.8238
  O  O310  1  0.829210  0.961160  0.260220  1.0  -0.7148
  O  O311  1  0.187110  0.010630  0.276150  1.0  -0.7528
  O  O312  1  0.249100  0.106000  0.227000  1.0  -0.6416
  O  O313  1  0.175190  0.852450  0.356170  1.0  -0.8259
  O  O314  1  0.339920  0.765020  0.302340  1.0  -0.7132
  O  O315  1  0.118270  0.953600  0.509460  1.0  -0.8742
  O  O316  1  0.247610  0.950000  0.569980  1.0  -0.5766
  O  O317  1  0.804910  0.608690  0.041290  1.0  -0.8006
  O  O318  1  0.876980  0.584720  0.923720  1.0  -0.6987
  O  O319  1  0.478730  0.680710  0.177630  1.0  -0.86
  O  O320  1  0.356130  0.621430  0.169510  1.0  -0.6302
  O  O321  1  0.723370  0.563640  0.177420  1.0  -0.8219
  O  O322  1  0.550590  0.538840  0.239780  1.0  -0.7143
  O  O323  1  0.973890  0.489370  0.223850  1.0  -0.7529
  O  O324  1  0.082100  0.394000  0.273000  1.0  -0.6492
  O  O325  1  0.883810  0.647550  0.143830  1.0  -0.8272
  O  O326  1  0.907280  0.734980  0.197660  1.0  -0.7136
  O  O327  1  0.081330  0.546400  0.990540  1.0  -0.8747
  O  O328  1  0.267590  0.550000  0.930020  1.0  -0.574
  O  O329  1  0.413600  0.541290  0.391310  1.0  -0.8014
  O  O330  1  0.461700  0.423720  0.415280  1.0  -0.7001
  O  O331  1  0.159440  0.677630  0.319290  1.0  -0.8587
  O  O332  1  0.977560  0.669510  0.378570  1.0  -0.6299
  O  O333  1  0.287010  0.677420  0.436360  1.0  -0.8214
  O  O334  1  0.089430  0.739780  0.461160  1.0  -0.7148
  O  O335  1  0.463260  0.723850  0.510630  1.0  -0.7531
  O  O336  1  0.476100  0.773000  0.606000  1.0  -0.6477
  O  O337  1  0.531360  0.643830  0.352450  1.0  -0.8258
  O  O338  1  0.642260  0.697660  0.265020  1.0  -0.7127
  O  O339  1  0.627730  0.490540  0.453600  1.0  -0.8741
  O  O340  1  0.817590  0.430020  0.450000  1.0  -0.5759
  O  O341  1  0.846200  0.958710  0.108690  1.0  -0.8011
  O  O342  1  0.800700  0.076280  0.084720  1.0  -0.7006
  O  O343  1  0.656360  0.822370  0.180710  1.0  -0.858
  O  O344  1  0.525640  0.830490  0.121430  1.0  -0.629
  O  O345  1  0.900790  0.822580  0.063640  1.0  -0.8232
  O  O346  1  0.790370  0.760220  0.038840  1.0  -0.714
  O  O347  1  0.197740  0.776150  0.989370  1.0  -0.7533
  O  O348  1  0.355100  0.727000  0.894000  1.0  -0.642
  O  O349  1  0.027640  0.856170  0.147550  1.0  -0.8269
  O  O350  1  0.104940  0.802340  0.234980  1.0  -0.7131
  O  O351  1  0.071870  0.009460  0.046400  1.0  -0.8741
  O  O352  1  0.197610  0.069980  0.050000  1.0  -0.5744
