# generated using pymatgen
data_Tb2H15C12(NO4)3
_symmetry_space_group_name_H-M   'P 1'
_cell_length_a   11.96600000
_cell_length_b   19.21550000
_cell_length_c   19.21550000
_cell_angle_alpha   84.43660000
_cell_angle_beta   71.85860000
_cell_angle_gamma   71.85860000
_symmetry_Int_Tables_number   1
_chemical_formula_structural   Tb2H15C12(NO4)3
_chemical_formula_sum   'Tb16 H120 C96 N24 O96'
_cell_volume   3989.93305798
_cell_formula_units_Z   8
loop_
 _symmetry_equiv_pos_site_id
 _symmetry_equiv_pos_as_xyz
  1  'x, y, z'
loop_
 _atom_site_type_symbol
 _atom_site_label
 _atom_site_symmetry_multiplicity
 _atom_site_fract_x
 _atom_site_fract_y
 _atom_site_fract_z
 _atom_site_occupancy
 _atom_site_charge
  Tb  Tb1  1  0.481320  0.201140  0.637220  1.0  2.2696
  Tb  Tb2  1  0.429760  0.021480  0.605300  1.0  2.2086
  Tb  Tb3  1  0.819670  0.298860  0.862780  1.0  2.2696
  Tb  Tb4  1  0.556540  0.478520  0.894700  1.0  2.2097
  Tb  Tb5  1  0.118530  0.362780  0.701150  1.0  2.2694
  Tb  Tb6  1  0.035060  0.394700  0.521480  1.0  2.2095
  Tb  Tb7  1  0.682460  0.137220  0.798850  1.0  2.2692
  Tb  Tb8  1  0.451240  0.105300  0.978520  1.0  2.2086
  Tb  Tb9  1  0.518680  0.798860  0.362780  1.0  2.2686
  Tb  Tb10  1  0.570240  0.978520  0.394700  1.0  2.209
  Tb  Tb11  1  0.180330  0.701140  0.137220  1.0  2.2695
  Tb  Tb12  1  0.443460  0.521480  0.105300  1.0  2.2095
  Tb  Tb13  1  0.881470  0.637220  0.298850  1.0  2.2687
  Tb  Tb14  1  0.964940  0.605300  0.478520  1.0  2.2093
  Tb  Tb15  1  0.317540  0.862780  0.201150  1.0  2.269
  Tb  Tb16  1  0.548760  0.894700  0.021480  1.0  2.209
  H  H17  1  0.648700  0.210200  0.439600  1.0  0.1275
  H  H18  1  0.765700  0.143600  0.437400  1.0  0.1125
  H  H19  1  0.799300  0.092900  0.549900  1.0  0.1304
  H  H20  1  0.860900  0.156100  0.535700  1.0  0.1017
  H  H21  1  0.543500  0.940700  0.775300  1.0  0.102
  H  H22  1  0.676600  0.912300  0.721300  1.0  0.118
  H  H23  1  0.461300  0.838700  0.682700  1.0  0.1097
  H  H24  1  0.483900  0.849800  0.756600  1.0  0.0838
  H  H25  1  0.052800  0.150100  0.670500  1.0  0.1016
  H  H26  1  0.117800  0.099600  0.724800  1.0  0.0978
  H  H27  1  0.099100  0.073600  0.551600  1.0  0.1151
  H  H28  1  0.146600  0.141500  0.548300  1.0  0.1076
  H  H29  1  0.693500  0.236600  0.530200  1.0  0.3004
  H  H30  1  0.609600  0.886600  0.642600  1.0  0.2719
  H  H31  1  0.169100  0.026900  0.635900  1.0  0.2669
  H  H32  1  0.798500  0.289800  0.060400  1.0  0.1298
  H  H33  1  0.846700  0.356400  0.062600  1.0  0.1139
  H  H34  1  0.942100  0.407100  0.950100  1.0  0.1227
  H  H35  1  0.052700  0.343900  0.964300  1.0  0.1079
  H  H36  1  0.759500  0.559300  0.724700  1.0  0.1028
  H  H37  1  0.810200  0.587700  0.778700  1.0  0.1182
  H  H38  1  0.482700  0.661300  0.817300  1.0  0.1107
  H  H39  1  0.590300  0.650200  0.743400  1.0  0.0831
  H  H40  1  0.373400  0.349900  0.829500  1.0  0.1009
  H  H41  1  0.442200  0.400400  0.775200  1.0  0.0985
  H  H42  1  0.224300  0.426400  0.948400  1.0  0.1171
  H  H43  1  0.336400  0.358500  0.951700  1.0  0.1078
  H  H44  1  0.960300  0.263400  0.969800  1.0  0.3027
  H  H45  1  0.638800  0.613400  0.857400  1.0  0.2738
  H  H46  1  0.331900  0.473100  0.864100  1.0  0.2661
  H  H47  1  0.088300  0.560400  0.710200  1.0  0.1282
  H  H48  1  0.203100  0.562600  0.643600  1.0  0.1104
  H  H49  1  0.349200  0.450100  0.592900  1.0  0.1258
  H  H50  1  0.396600  0.464300  0.656100  1.0  0.1055
  H  H51  1  0.318800  0.224700  0.440700  1.0  0.1036
  H  H52  1  0.397900  0.278700  0.412300  1.0  0.1167
  H  H53  1  0.144000  0.317300  0.338700  1.0  0.109
  H  H54  1  0.240500  0.243400  0.349800  1.0  0.0827
  H  H55  1  0.723300  0.329500  0.650100  1.0  0.1012
  H  H56  1  0.842600  0.275200  0.599600  1.0  0.0959
  H  H57  1  0.650700  0.448400  0.573600  1.0  0.115
  H  H58  1  0.694900  0.451700  0.641500  1.0  0.1049
  H  H59  1  0.223700  0.469800  0.736600  1.0  0.2945
  H  H60  1  0.252200  0.357400  0.386600  1.0  0.2714
  H  H61  1  0.805000  0.364100  0.526900  1.0  0.2637
  H  H62  1  0.858900  0.939600  0.789800  1.0  0.1277
  H  H63  1  0.909300  0.937400  0.856400  1.0  0.1125
  H  H64  1  0.892200  0.049900  0.907100  1.0  0.1239
  H  H65  1  0.017000  0.035700  0.843900  1.0  0.106
  H  H66  1  0.484200  0.275300  0.059300  1.0  0.1026
  H  H67  1  0.588900  0.221300  0.087700  1.0  0.1183
  H  H68  1  0.300000  0.182700  0.161300  1.0  0.1112
  H  H69  1  0.333700  0.256600  0.150200  1.0  0.0825
  H  H70  1  0.202900  0.170500  0.849900  1.0  0.0993
  H  H71  1  0.217400  0.224800  0.900400  1.0  0.0966
  H  H72  1  0.172700  0.051600  0.926400  1.0  0.1203
  H  H73  1  0.288100  0.048300  0.858500  1.0  0.1055
  H  H74  1  0.930100  0.030200  0.763400  1.0  0.2936
  H  H75  1  0.496200  0.142600  0.113400  1.0  0.2713
  H  H76  1  0.196000  0.135900  0.973100  1.0  0.2625
  H  H77  1  0.351300  0.789800  0.560400  1.0  0.1295
  H  H78  1  0.234300  0.856400  0.562600  1.0  0.1123
  H  H79  1  0.200700  0.907100  0.450100  1.0  0.1253
  H  H80  1  0.139100  0.843900  0.464300  1.0  0.0976
  H  H81  1  0.456500  0.059300  0.224700  1.0  0.1026
  H  H82  1  0.323400  0.087700  0.278700  1.0  0.1183
  H  H83  1  0.538700  0.161300  0.317300  1.0  0.1081
  H  H84  1  0.516100  0.150200  0.243400  1.0  0.0839
  H  H85  1  0.947200  0.849900  0.329500  1.0  0.1015
  H  H86  1  0.882200  0.900400  0.275200  1.0  0.0983
  H  H87  1  0.900900  0.926400  0.448400  1.0  0.117
  H  H88  1  0.853400  0.858500  0.451700  1.0  0.1078
  H  H89  1  0.306500  0.763400  0.469800  1.0  0.3036
  H  H90  1  0.390400  0.113400  0.357400  1.0  0.2724
  H  H91  1  0.830900  0.973100  0.364100  1.0  0.2649
  H  H92  1  0.201500  0.710200  0.939600  1.0  0.1271
  H  H93  1  0.153300  0.643600  0.937400  1.0  0.114
  H  H94  1  0.057900  0.592900  0.049900  1.0  0.1275
  H  H95  1  0.947300  0.656100  0.035700  1.0  0.1063
  H  H96  1  0.240500  0.440700  0.275300  1.0  0.1031
  H  H97  1  0.189800  0.412300  0.221300  1.0  0.1174
  H  H98  1  0.517300  0.338700  0.182700  1.0  0.1091
  H  H99  1  0.409700  0.349800  0.256600  1.0  0.0828
  H  H100  1  0.626600  0.650100  0.170500  1.0  0.1002
  H  H101  1  0.557800  0.599600  0.224800  1.0  0.098
  H  H102  1  0.775700  0.573600  0.051600  1.0  0.1156
  H  H103  1  0.663600  0.641500  0.048300  1.0  0.1066
  H  H104  1  0.039700  0.736600  0.030200  1.0  0.2996
  H  H105  1  0.361200  0.386600  0.142600  1.0  0.2745
  H  H106  1  0.668100  0.526900  0.135900  1.0  0.2681
  H  H107  1  0.911700  0.439600  0.289800  1.0  0.1286
  H  H108  1  0.796900  0.437400  0.356400  1.0  0.1125
  H  H109  1  0.650800  0.549900  0.407100  1.0  0.1227
  H  H110  1  0.603400  0.535700  0.343900  1.0  0.1038
  H  H111  1  0.681200  0.775300  0.559300  1.0  0.1038
  H  H112  1  0.602100  0.721300  0.587700  1.0  0.1177
  H  H113  1  0.856000  0.682700  0.661300  1.0  0.1078
  H  H114  1  0.759500  0.756600  0.650200  1.0  0.0833
  H  H115  1  0.276700  0.670500  0.349900  1.0  0.1017
  H  H116  1  0.157400  0.724800  0.400400  1.0  0.0964
  H  H117  1  0.349300  0.551600  0.426400  1.0  0.1163
  H  H118  1  0.305100  0.548300  0.358500  1.0  0.1058
  H  H119  1  0.776300  0.530200  0.263400  1.0  0.2931
  H  H120  1  0.747800  0.642600  0.613400  1.0  0.2707
  H  H121  1  0.195000  0.635900  0.473100  1.0  0.2641
  H  H122  1  0.141100  0.060400  0.210200  1.0  0.1277
  H  H123  1  0.090700  0.062600  0.143600  1.0  0.1113
  H  H124  1  0.107800  0.950100  0.092900  1.0  0.1245
  H  H125  1  0.983000  0.964300  0.156100  1.0  0.1059
  H  H126  1  0.515800  0.724700  0.940700  1.0  0.1024
  H  H127  1  0.411100  0.778700  0.912300  1.0  0.119
  H  H128  1  0.700000  0.817300  0.838700  1.0  0.1078
  H  H129  1  0.666300  0.743400  0.849800  1.0  0.0825
  H  H130  1  0.797100  0.829500  0.150100  1.0  0.1003
  H  H131  1  0.782600  0.775200  0.099600  1.0  0.0968
  H  H132  1  0.827300  0.948400  0.073600  1.0  0.1171
  H  H133  1  0.711900  0.951700  0.141500  1.0  0.1042
  H  H134  1  0.069900  0.969800  0.236600  1.0  0.2958
  H  H135  1  0.503800  0.857400  0.886600  1.0  0.2724
  H  H136  1  0.804000  0.864100  0.026900  1.0  0.2626
  C  C137  1  0.605700  0.115820  0.477780  1.0  0.76
  C  C138  1  0.682070  0.167600  0.466460  1.0  -0.1719
  C  C139  1  0.786300  0.143300  0.561700  1.0  -0.1695
  C  C140  1  0.761680  0.150240  0.642600  1.0  0.7249
  C  C141  1  0.599570  0.022770  0.711890  1.0  0.7483
  C  C142  1  0.594100  0.944300  0.725300  1.0  -0.1737
  C  C143  1  0.459100  0.875000  0.715200  1.0  -0.1304
  C  C144  1  0.331600  0.925700  0.741300  1.0  0.7409
  C  C145  1  0.207020  0.174050  0.672510  1.0  0.7589
  C  C146  1  0.132100  0.122700  0.676900  1.0  -0.1648
  C  C147  1  0.169500  0.088500  0.551500  1.0  -0.1401
  C  C148  1  0.275000  0.056800  0.485400  1.0  0.7312
  C  C149  1  0.699300  0.384180  0.022220  1.0  0.76
  C  C150  1  0.816130  0.332400  0.033540  1.0  -0.1703
  C  C151  1  0.991300  0.356700  0.938300  1.0  -0.1694
  C  C152  1  0.054520  0.349760  0.857400  1.0  0.7268
  C  C153  1  0.834230  0.477230  0.788110  1.0  0.7478
  C  C154  1  0.763700  0.555700  0.774700  1.0  -0.1741
  C  C155  1  0.549300  0.625000  0.784800  1.0  -0.1317
  C  C156  1  0.498600  0.574300  0.758700  1.0  0.7412
  C  C157  1  0.553580  0.325950  0.827490  1.0  0.759
  C  C158  1  0.431700  0.377300  0.823100  1.0  -0.1629
  C  C159  1  0.309500  0.411500  0.948500  1.0  -0.1411
  C  C160  1  0.317200  0.443200  0.014600  1.0  0.7305
  C  C161  1  0.083480  0.522220  0.615820  1.0  0.7621
  C  C162  1  0.148530  0.533540  0.667600  1.0  -0.1701
  C  C163  1  0.348000  0.438300  0.643300  1.0  -0.1717
  C  C164  1  0.404280  0.357400  0.650240  1.0  0.724
  C  C165  1  0.311460  0.288110  0.522770  1.0  0.7496
  C  C166  1  0.319400  0.274700  0.444300  1.0  -0.1756
  C  C167  1  0.174300  0.284800  0.375000  1.0  -0.1321
  C  C168  1  0.072900  0.258700  0.425700  1.0  0.7399
  C  C169  1  0.879530  0.327490  0.674050  1.0  0.7622
  C  C170  1  0.809000  0.323100  0.622700  1.0  -0.1632
  C  C171  1  0.721000  0.448500  0.588500  1.0  -0.1353
  C  C172  1  0.760400  0.514600  0.556800  1.0  0.7281
  C  C173  1  0.721520  0.977780  0.884180  1.0  0.7599
  C  C174  1  0.849670  0.966460  0.832400  1.0  -0.1688
  C  C175  1  0.929600  0.061700  0.856700  1.0  -0.1726
  C  C176  1  0.911920  0.142600  0.849760  1.0  0.724
  C  C177  1  0.622340  0.211890  0.977230  1.0  0.7478
  C  C178  1  0.538400  0.225300  0.055700  1.0  -0.1746
  C  C179  1  0.334100  0.215200  0.125000  1.0  -0.1372
  C  C180  1  0.257300  0.241300  0.074300  1.0  0.7399
  C  C181  1  0.381070  0.172510  0.825950  1.0  0.7602
  C  C182  1  0.254800  0.176900  0.877300  1.0  -0.1608
  C  C183  1  0.258000  0.051500  0.911500  1.0  -0.1384
  C  C184  1  0.331800  0.985400  0.943200  1.0  0.7311
  C  C185  1  0.394300  0.884180  0.522220  1.0  0.7605
  C  C186  1  0.317930  0.832400  0.533540  1.0  -0.1715
  C  C187  1  0.213700  0.856700  0.438300  1.0  -0.1692
  C  C188  1  0.238320  0.849760  0.357400  1.0  0.7265
  C  C189  1  0.400430  0.977230  0.288110  1.0  0.7479
  C  C190  1  0.405900  0.055700  0.274700  1.0  -0.1732
  C  C191  1  0.540900  0.125000  0.284800  1.0  -0.1309
  C  C192  1  0.668400  0.074300  0.258700  1.0  0.7396
  C  C193  1  0.792980  0.825950  0.327490  1.0  0.7601
  C  C194  1  0.867900  0.877300  0.323100  1.0  -0.1637
  C  C195  1  0.830500  0.911500  0.448500  1.0  -0.1393
  C  C196  1  0.725000  0.943200  0.514600  1.0  0.7304
  C  C197  1  0.300700  0.615820  0.977780  1.0  0.7596
  C  C198  1  0.183870  0.667600  0.966460  1.0  -0.1707
  C  C199  1  0.008700  0.643300  0.061700  1.0  -0.1698
  C  C200  1  0.945480  0.650240  0.142600  1.0  0.7251
  C  C201  1  0.165770  0.522770  0.211890  1.0  0.7482
  C  C202  1  0.236300  0.444300  0.225300  1.0  -0.1727
  C  C203  1  0.450700  0.375000  0.215200  1.0  -0.1301
  C  C204  1  0.501400  0.425700  0.241300  1.0  0.7385
  C  C205  1  0.446420  0.674050  0.172510  1.0  0.7593
  C  C206  1  0.568300  0.622700  0.176900  1.0  -0.1644
  C  C207  1  0.690500  0.588500  0.051500  1.0  -0.1396
  C  C208  1  0.682800  0.556800  0.985400  1.0  0.7305
  C  C209  1  0.916520  0.477780  0.384180  1.0  0.7603
  C  C210  1  0.851470  0.466460  0.332400  1.0  -0.1689
  C  C211  1  0.652000  0.561700  0.356700  1.0  -0.1724
  C  C212  1  0.595720  0.642600  0.349760  1.0  0.7232
  C  C213  1  0.688540  0.711890  0.477230  1.0  0.7495
  C  C214  1  0.680600  0.725300  0.555700  1.0  -0.1755
  C  C215  1  0.825700  0.715200  0.625000  1.0  -0.1324
  C  C216  1  0.927100  0.741300  0.574300  1.0  0.7362
  C  C217  1  0.120470  0.672510  0.325950  1.0  0.7624
  C  C218  1  0.191000  0.676900  0.377300  1.0  -0.1641
  C  C219  1  0.279000  0.551500  0.411500  1.0  -0.1366
  C  C220  1  0.239600  0.485400  0.443200  1.0  0.7287
  C  C221  1  0.278480  0.022220  0.115820  1.0  0.7598
  C  C222  1  0.150330  0.033540  0.167600  1.0  -0.1697
  C  C223  1  0.070400  0.938300  0.143300  1.0  -0.1724
  C  C224  1  0.088080  0.857400  0.150240  1.0  0.7243
  C  C225  1  0.377660  0.788110  0.022770  1.0  0.7484
  C  C226  1  0.461600  0.774700  0.944300  1.0  -0.1738
  C  C227  1  0.665900  0.784800  0.875000  1.0  -0.1319
  C  C228  1  0.742700  0.758700  0.925700  1.0  0.7404
  C  C229  1  0.618930  0.827490  0.174050  1.0  0.7596
  C  C230  1  0.745200  0.823100  0.122700  1.0  -0.1608
  C  C231  1  0.742000  0.948500  0.088500  1.0  -0.1377
  C  C232  1  0.668200  0.014600  0.056800  1.0  0.7281
  N  N233  1  0.683530  0.191140  0.537000  1.0  -0.5239
  N  N234  1  0.545240  0.916920  0.675800  1.0  -0.5173
  N  N235  1  0.197760  0.066080  0.619600  1.0  -0.5042
  N  N236  1  0.911670  0.308860  0.963000  1.0  -0.5254
  N  N237  1  0.637960  0.583080  0.824200  1.0  -0.5182
  N  N238  1  0.383440  0.433920  0.880400  1.0  -0.5088
  N  N239  1  0.220530  0.463000  0.691140  1.0  -0.5258
  N  N240  1  0.221040  0.324200  0.416920  1.0  -0.5231
  N  N241  1  0.817360  0.380400  0.566080  1.0  -0.5028
  N  N242  1  0.874670  0.037000  0.808860  1.0  -0.5257
  N  N243  1  0.462160  0.175800  0.083080  1.0  -0.5248
  N  N244  1  0.263840  0.119600  0.933920  1.0  -0.5054
  N  N245  1  0.316470  0.808860  0.463000  1.0  -0.5212
  N  N246  1  0.454760  0.083080  0.324200  1.0  -0.5176
  N  N247  1  0.802240  0.933920  0.380400  1.0  -0.5038
  N  N248  1  0.088330  0.691140  0.037000  1.0  -0.5289
  N  N249  1  0.362040  0.416920  0.175800  1.0  -0.5179
  N  N250  1  0.616560  0.566080  0.119600  1.0  -0.5055
  N  N251  1  0.779470  0.537000  0.308860  1.0  -0.527
  N  N252  1  0.778960  0.675800  0.583080  1.0  -0.5232
  N  N253  1  0.182640  0.619600  0.433920  1.0  -0.504
  N  N254  1  0.125330  0.963000  0.191140  1.0  -0.5259
  N  N255  1  0.537840  0.824200  0.916920  1.0  -0.5243
  N  N256  1  0.736160  0.880400  0.066080  1.0  -0.5048
  O  O257  1  0.538500  0.109460  0.541940  1.0  -0.7965
  O  O258  1  0.613330  0.083170  0.422170  1.0  -0.7088
  O  O259  1  0.649800  0.180320  0.680680  1.0  -0.8135
  O  O260  1  0.842640  0.125970  0.672950  1.0  -0.6291
  O  O261  1  0.531850  0.064240  0.675860  1.0  -0.7695
  O  O262  1  0.666180  0.040250  0.740790  1.0  -0.6728
  O  O263  1  0.248400  0.896600  0.776200  1.0  -0.6253
  O  O264  1  0.314710  0.991280  0.722900  1.0  -0.6882
  O  O265  1  0.323220  0.147690  0.644870  1.0  -0.8004
  O  O266  1  0.154610  0.236200  0.697380  1.0  -0.6607
  O  O267  1  0.254400  0.044800  0.430000  1.0  -0.5608
  O  O268  1  0.384670  0.044340  0.489920  1.0  -0.8498
  O  O269  1  0.689900  0.390540  0.958060  1.0  -0.7958
  O  O270  1  0.618670  0.416830  0.077830  1.0  -0.7083
  O  O271  1  0.010800  0.319680  0.819320  1.0  -0.8136
  O  O272  1  0.141560  0.374030  0.827050  1.0  -0.6279
  O  O273  1  0.771950  0.435760  0.824140  1.0  -0.7694
  O  O274  1  0.947220  0.459750  0.759210  1.0  -0.6722
  O  O275  1  0.421200  0.603400  0.723800  1.0  -0.6329
  O  O276  1  0.528890  0.508720  0.777100  1.0  -0.6856
  O  O277  1  0.615780  0.352310  0.855130  1.0  -0.8023
  O  O278  1  0.588190  0.263800  0.802620  1.0  -0.662
  O  O279  1  0.229200  0.455200  0.070000  1.0  -0.5614
  O  O280  1  0.418930  0.455660  0.010080  1.0  -0.8498
  O  O281  1  0.080440  0.458060  0.609460  1.0  -0.7969
  O  O282  1  0.035500  0.577830  0.583170  1.0  -0.7081
  O  O283  1  0.330480  0.319320  0.680320  1.0  -0.8139
  O  O284  1  0.515590  0.327050  0.625970  1.0  -0.6277
  O  O285  1  0.207710  0.324140  0.564240  1.0  -0.768
  O  O286  1  0.406970  0.259210  0.540250  1.0  -0.6732
  O  O287  1  0.024600  0.223800  0.396600  1.0  -0.6332
  O  O288  1  0.037610  0.277100  0.491280  1.0  -0.6872
  O  O289  1  0.968090  0.355130  0.647690  1.0  -0.8007
  O  O290  1  0.851990  0.302620  0.736200  1.0  -0.6615
  O  O291  1  0.684400  0.570000  0.544800  1.0  -0.5625
  O  O292  1  0.874590  0.510080  0.544340  1.0  -0.8492
  O  O293  1  0.647960  0.041940  0.890540  1.0  -0.7963
  O  O294  1  0.696500  0.922170  0.916830  1.0  -0.7104
  O  O295  1  0.830120  0.180680  0.819680  1.0  -0.816
  O  O296  1  0.968610  0.172950  0.874030  1.0  -0.6284
  O  O297  1  0.596090  0.175860  0.935760  1.0  -0.7684
  O  O298  1  0.706430  0.240790  0.959750  1.0  -0.6726
  O  O299  1  0.145000  0.276200  0.103400  1.0  -0.6254
  O  O300  1  0.305990  0.222900  0.008720  1.0  -0.6878
  O  O301  1  0.470910  0.144870  0.852310  1.0  -0.8017
  O  O302  1  0.390810  0.197380  0.763800  1.0  -0.6608
  O  O303  1  0.299200  0.930000  0.955200  1.0  -0.5617
  O  O304  1  0.429010  0.989920  0.955660  1.0  -0.8497
  O  O305  1  0.461500  0.890540  0.458060  1.0  -0.7972
  O  O306  1  0.386670  0.916830  0.577830  1.0  -0.7091
  O  O307  1  0.350200  0.819680  0.319320  1.0  -0.8132
  O  O308  1  0.157360  0.874030  0.327050  1.0  -0.6288
  O  O309  1  0.468150  0.935760  0.324140  1.0  -0.7718
  O  O310  1  0.333820  0.959750  0.259210  1.0  -0.6736
  O  O311  1  0.751600  0.103400  0.223800  1.0  -0.6277
  O  O312  1  0.685290  0.008720  0.277100  1.0  -0.6865
  O  O313  1  0.676780  0.852310  0.355130  1.0  -0.8016
  O  O314  1  0.845390  0.763800  0.302620  1.0  -0.6619
  O  O315  1  0.745600  0.955200  0.570000  1.0  -0.5623
  O  O316  1  0.615330  0.955660  0.510080  1.0  -0.8486
  O  O317  1  0.310100  0.609460  0.041940  1.0  -0.7958
  O  O318  1  0.381330  0.583170  0.922170  1.0  -0.7089
  O  O319  1  0.989200  0.680320  0.180680  1.0  -0.8144
  O  O320  1  0.858440  0.625970  0.172950  1.0  -0.6284
  O  O321  1  0.228050  0.564240  0.175860  1.0  -0.769
  O  O322  1  0.052780  0.540250  0.240790  1.0  -0.6735
  O  O323  1  0.578800  0.396600  0.276200  1.0  -0.6346
  O  O324  1  0.471110  0.491280  0.222900  1.0  -0.6864
  O  O325  1  0.384220  0.647690  0.144870  1.0  -0.8028
  O  O326  1  0.411810  0.736200  0.197380  1.0  -0.6611
  O  O327  1  0.770800  0.544800  0.930000  1.0  -0.5604
  O  O328  1  0.581070  0.544340  0.989920  1.0  -0.8499
  O  O329  1  0.919560  0.541940  0.390540  1.0  -0.7964
  O  O330  1  0.964500  0.422170  0.416830  1.0  -0.7089
  O  O331  1  0.669520  0.680680  0.319680  1.0  -0.8147
  O  O332  1  0.484410  0.672950  0.374030  1.0  -0.6276
  O  O333  1  0.792290  0.675860  0.435760  1.0  -0.768
  O  O334  1  0.593030  0.740790  0.459750  1.0  -0.675
  O  O335  1  0.975400  0.776200  0.603400  1.0  -0.6327
  O  O336  1  0.962390  0.722900  0.508720  1.0  -0.6861
  O  O337  1  0.031910  0.644870  0.352310  1.0  -0.8022
  O  O338  1  0.148010  0.697380  0.263800  1.0  -0.6607
  O  O339  1  0.315600  0.430000  0.455200  1.0  -0.5615
  O  O340  1  0.125410  0.489920  0.455660  1.0  -0.849
  O  O341  1  0.352040  0.958060  0.109460  1.0  -0.797
  O  O342  1  0.303500  0.077830  0.083170  1.0  -0.7099
  O  O343  1  0.169880  0.819320  0.180320  1.0  -0.8152
  O  O344  1  0.031390  0.827050  0.125970  1.0  -0.6276
  O  O345  1  0.403910  0.824140  0.064240  1.0  -0.7695
  O  O346  1  0.293570  0.759210  0.040250  1.0  -0.6736
  O  O347  1  0.855000  0.723800  0.896600  1.0  -0.6269
  O  O348  1  0.694010  0.777100  0.991280  1.0  -0.6866
  O  O349  1  0.529090  0.855130  0.147690  1.0  -0.8029
  O  O350  1  0.609190  0.802620  0.236200  1.0  -0.6616
  O  O351  1  0.700800  0.070000  0.044800  1.0  -0.5598
  O  O352  1  0.570990  0.010080  0.044340  1.0  -0.8488
