# generated using pymatgen
data_Eu2H15C12(NO4)3
_symmetry_space_group_name_H-M   'P 1'
_cell_length_a   12.01880000
_cell_length_b   19.35480000
_cell_length_c   19.35480000
_cell_angle_alpha   84.46800000
_cell_angle_beta   71.91150000
_cell_angle_gamma   71.91140000
_symmetry_Int_Tables_number   1
_chemical_formula_structural   Eu2H15C12(NO4)3
_chemical_formula_sum   'Eu16 H120 C96 N24 O96'
_cell_volume   4068.30793365
_cell_formula_units_Z   8
loop_
 _symmetry_equiv_pos_site_id
 _symmetry_equiv_pos_as_xyz
  1  'x, y, z'
loop_
 _atom_site_type_symbol
 _atom_site_label
 _atom_site_symmetry_multiplicity
 _atom_site_fract_x
 _atom_site_fract_y
 _atom_site_fract_z
 _atom_site_occupancy
 _atom_site_charge
  Eu  Eu1  1  0.483520  0.201410  0.637210  1.0  2.1126
  Eu  Eu2  1  0.430340  0.021130  0.605510  1.0  2.0662
  Eu  Eu3  1  0.822140  0.298590  0.862790  1.0  2.1126
  Eu  Eu4  1  0.556980  0.478870  0.894490  1.0  2.0678
  Eu  Eu5  1  0.120730  0.362790  0.701410  1.0  2.1126
  Eu  Eu6  1  0.035850  0.394490  0.521130  1.0  2.0683
  Eu  Eu7  1  0.684930  0.137210  0.798590  1.0  2.1123
  Eu  Eu8  1  0.451470  0.105510  0.978870  1.0  2.067
  Eu  Eu9  1  0.516480  0.798590  0.362790  1.0  2.1112
  Eu  Eu10  1  0.569660  0.978870  0.394490  1.0  2.0673
  Eu  Eu11  1  0.177860  0.701410  0.137210  1.0  2.1121
  Eu  Eu12  1  0.443020  0.521130  0.105510  1.0  2.0682
  Eu  Eu13  1  0.879270  0.637210  0.298590  1.0  2.111
  Eu  Eu14  1  0.964150  0.605510  0.478870  1.0  2.0685
  Eu  Eu15  1  0.315070  0.862790  0.201410  1.0  2.1114
  Eu  Eu16  1  0.548530  0.894490  0.021130  1.0  2.0676
  H  H17  1  0.652700  0.209000  0.440400  1.0  0.1351
  H  H18  1  0.768100  0.142200  0.438400  1.0  0.1236
  H  H19  1  0.801900  0.091500  0.550700  1.0  0.1228
  H  H20  1  0.864700  0.153700  0.535700  1.0  0.1077
  H  H21  1  0.543100  0.942800  0.775800  1.0  0.1128
  H  H22  1  0.675500  0.914400  0.722800  1.0  0.1255
  H  H23  1  0.464300  0.839500  0.683700  1.0  0.1192
  H  H24  1  0.484300  0.851700  0.757500  1.0  0.0937
  H  H25  1  0.054600  0.150900  0.669300  1.0  0.1128
  H  H26  1  0.117600  0.101000  0.723800  1.0  0.1115
  H  H27  1  0.099300  0.072900  0.551900  1.0  0.1251
  H  H28  1  0.144400  0.141200  0.549000  1.0  0.1218
  H  H29  1  0.698200  0.234500  0.530100  1.0  0.274
  H  H30  1  0.609800  0.887200  0.644800  1.0  0.2889
  H  H31  1  0.168100  0.027900  0.636500  1.0  0.3117
  H  H32  1  0.802100  0.291000  0.059600  1.0  0.1373
  H  H33  1  0.848700  0.357800  0.061600  1.0  0.1249
  H  H34  1  0.944100  0.408500  0.949300  1.0  0.1198
  H  H35  1  0.054100  0.346300  0.964300  1.0  0.1139
  H  H36  1  0.761700  0.557200  0.724200  1.0  0.1125
  H  H37  1  0.812700  0.585600  0.777200  1.0  0.125
  H  H38  1  0.487500  0.660500  0.816300  1.0  0.1202
  H  H39  1  0.593500  0.648300  0.742500  1.0  0.0921
  H  H40  1  0.374800  0.349100  0.830700  1.0  0.1127
  H  H41  1  0.442400  0.399000  0.776200  1.0  0.1131
  H  H42  1  0.224100  0.427100  0.948100  1.0  0.1257
  H  H43  1  0.334600  0.358800  0.951000  1.0  0.1223
  H  H44  1  0.962800  0.265500  0.969900  1.0  0.2754
  H  H45  1  0.641800  0.612800  0.855200  1.0  0.2891
  H  H46  1  0.332500  0.472100  0.863500  1.0  0.3094
  H  H47  1  0.093100  0.559600  0.709000  1.0  0.135
  H  H48  1  0.206500  0.561600  0.642200  1.0  0.121
  H  H49  1  0.352600  0.449300  0.591500  1.0  0.1231
  H  H50  1  0.400400  0.464300  0.653700  1.0  0.1123
  H  H51  1  0.318900  0.224200  0.442800  1.0  0.1135
  H  H52  1  0.398300  0.277200  0.414400  1.0  0.1245
  H  H53  1  0.148000  0.316300  0.339500  1.0  0.1179
  H  H54  1  0.241800  0.242500  0.351700  1.0  0.0922
  H  H55  1  0.723900  0.330700  0.650900  1.0  0.1128
  H  H56  1  0.841400  0.276200  0.601000  1.0  0.1117
  H  H57  1  0.651200  0.448100  0.572900  1.0  0.1249
  H  H58  1  0.693400  0.451000  0.641200  1.0  0.1181
  H  H59  1  0.228300  0.469900  0.734500  1.0  0.2674
  H  H60  1  0.254600  0.355200  0.387200  1.0  0.289
  H  H61  1  0.804600  0.363500  0.527900  1.0  0.3078
  H  H62  1  0.861700  0.940400  0.791000  1.0  0.1352
  H  H63  1  0.910300  0.938400  0.857800  1.0  0.1237
  H  H64  1  0.893400  0.050700  0.908500  1.0  0.1205
  H  H65  1  0.018400  0.035700  0.846300  1.0  0.1132
  H  H66  1  0.485900  0.275800  0.057200  1.0  0.1128
  H  H67  1  0.589900  0.222800  0.085600  1.0  0.1266
  H  H68  1  0.303800  0.183700  0.160500  1.0  0.1202
  H  H69  1  0.336000  0.257500  0.148300  1.0  0.0926
  H  H70  1  0.205500  0.169300  0.849100  1.0  0.1106
  H  H71  1  0.218600  0.223800  0.899000  1.0  0.1117
  H  H72  1  0.172200  0.051900  0.927100  1.0  0.1285
  H  H73  1  0.285600  0.049000  0.858800  1.0  0.1188
  H  H74  1  0.932700  0.030100  0.765500  1.0  0.2684
  H  H75  1  0.497000  0.144800  0.112800  1.0  0.2884
  H  H76  1  0.196000  0.136500  0.972100  1.0  0.3061
  H  H77  1  0.347300  0.791000  0.559600  1.0  0.1369
  H  H78  1  0.231900  0.857800  0.561600  1.0  0.1231
  H  H79  1  0.198100  0.908500  0.449300  1.0  0.1215
  H  H80  1  0.135300  0.846300  0.464300  1.0  0.1059
  H  H81  1  0.456900  0.057200  0.224200  1.0  0.112
  H  H82  1  0.324500  0.085600  0.277200  1.0  0.1249
  H  H83  1  0.535700  0.160500  0.316300  1.0  0.1191
  H  H84  1  0.515700  0.148300  0.242500  1.0  0.0947
  H  H85  1  0.945400  0.849100  0.330700  1.0  0.1138
  H  H86  1  0.882400  0.899000  0.276200  1.0  0.1121
  H  H87  1  0.900700  0.927100  0.448100  1.0  0.1261
  H  H88  1  0.855600  0.858800  0.451000  1.0  0.1226
  H  H89  1  0.301800  0.765500  0.469900  1.0  0.2755
  H  H90  1  0.390200  0.112800  0.355200  1.0  0.2886
  H  H91  1  0.831900  0.972100  0.363500  1.0  0.3083
  H  H92  1  0.197900  0.709000  0.940400  1.0  0.1351
  H  H93  1  0.151300  0.642200  0.938400  1.0  0.1249
  H  H94  1  0.055900  0.591500  0.050700  1.0  0.1215
  H  H95  1  0.945900  0.653700  0.035700  1.0  0.1131
  H  H96  1  0.238300  0.442800  0.275800  1.0  0.1131
  H  H97  1  0.187300  0.414400  0.222800  1.0  0.1247
  H  H98  1  0.512500  0.339500  0.183700  1.0  0.1208
  H  H99  1  0.406500  0.351700  0.257500  1.0  0.0925
  H  H100  1  0.625200  0.650900  0.169300  1.0  0.1117
  H  H101  1  0.557600  0.601000  0.223800  1.0  0.113
  H  H102  1  0.775900  0.572900  0.051900  1.0  0.124
  H  H103  1  0.665400  0.641200  0.049000  1.0  0.1205
  H  H104  1  0.037200  0.734500  0.030100  1.0  0.2731
  H  H105  1  0.358200  0.387200  0.144800  1.0  0.2912
  H  H106  1  0.667500  0.527900  0.136500  1.0  0.3116
  H  H107  1  0.906900  0.440400  0.291000  1.0  0.1363
  H  H108  1  0.793500  0.438400  0.357800  1.0  0.1227
  H  H109  1  0.647400  0.550700  0.408500  1.0  0.1217
  H  H110  1  0.599600  0.535700  0.346300  1.0  0.1113
  H  H111  1  0.681100  0.775800  0.557200  1.0  0.1141
  H  H112  1  0.601700  0.722800  0.585600  1.0  0.1257
  H  H113  1  0.852000  0.683700  0.660500  1.0  0.1186
  H  H114  1  0.758200  0.757500  0.648300  1.0  0.0929
  H  H115  1  0.276100  0.669300  0.349100  1.0  0.1132
  H  H116  1  0.158600  0.723800  0.399000  1.0  0.1119
  H  H117  1  0.348800  0.551900  0.427100  1.0  0.1262
  H  H118  1  0.306600  0.549000  0.358800  1.0  0.119
  H  H119  1  0.771700  0.530100  0.265500  1.0  0.2678
  H  H120  1  0.745400  0.644800  0.612800  1.0  0.2882
  H  H121  1  0.195400  0.636500  0.472100  1.0  0.3069
  H  H122  1  0.138300  0.059600  0.209000  1.0  0.1351
  H  H123  1  0.089700  0.061600  0.142200  1.0  0.1221
  H  H124  1  0.106600  0.949300  0.091500  1.0  0.1216
  H  H125  1  0.981600  0.964300  0.153700  1.0  0.1125
  H  H126  1  0.514100  0.724200  0.942800  1.0  0.1121
  H  H127  1  0.410100  0.777200  0.914400  1.0  0.1271
  H  H128  1  0.696200  0.816300  0.839500  1.0  0.1198
  H  H129  1  0.664000  0.742500  0.851700  1.0  0.093
  H  H130  1  0.794500  0.830700  0.150900  1.0  0.1127
  H  H131  1  0.781400  0.776200  0.101000  1.0  0.1115
  H  H132  1  0.827800  0.948100  0.072900  1.0  0.1253
  H  H133  1  0.714400  0.951000  0.141200  1.0  0.1174
  H  H134  1  0.067300  0.969900  0.234500  1.0  0.2684
  H  H135  1  0.503000  0.855200  0.887200  1.0  0.2892
  H  H136  1  0.804000  0.863500  0.027900  1.0  0.3059
  C  C137  1  0.607500  0.115600  0.478000  1.0  0.7532
  C  C138  1  0.685100  0.166500  0.467100  1.0  -0.1657
  C  C139  1  0.790100  0.141500  0.561700  1.0  -0.1682
  C  C140  1  0.764800  0.149700  0.642700  1.0  0.7318
  C  C141  1  0.599600  0.022600  0.713000  1.0  0.7576
  C  C142  1  0.593600  0.945900  0.726300  1.0  -0.1693
  C  C143  1  0.460500  0.876200  0.715800  1.0  -0.1566
  C  C144  1  0.331800  0.926100  0.740700  1.0  0.7244
  C  C145  1  0.207900  0.173800  0.672200  1.0  0.7721
  C  C146  1  0.133100  0.123300  0.676100  1.0  -0.168
  C  C147  1  0.168600  0.088500  0.551900  1.0  -0.146
  C  C148  1  0.274700  0.057800  0.485200  1.0  0.7159
  C  C149  1  0.701100  0.384400  0.022000  1.0  0.7542
  C  C150  1  0.818700  0.333500  0.032900  1.0  -0.1643
  C  C151  1  0.993300  0.358500  0.938300  1.0  -0.1679
  C  C152  1  0.057200  0.350300  0.857300  1.0  0.7323
  C  C153  1  0.835200  0.477400  0.787000  1.0  0.7575
  C  C154  1  0.765800  0.554100  0.773700  1.0  -0.1678
  C  C155  1  0.552500  0.623800  0.784200  1.0  -0.1581
  C  C156  1  0.498600  0.573900  0.759300  1.0  0.7261
  C  C157  1  0.553900  0.326200  0.827800  1.0  0.7716
  C  C158  1  0.432500  0.376700  0.823900  1.0  -0.1664
  C  C159  1  0.309000  0.411500  0.948100  1.0  -0.1456
  C  C160  1  0.317700  0.442200  0.014800  1.0  0.7162
  C  C161  1  0.085500  0.522000  0.615600  1.0  0.7565
  C  C162  1  0.152200  0.532900  0.666500  1.0  -0.1627
  C  C163  1  0.351800  0.438300  0.641500  1.0  -0.1706
  C  C164  1  0.407500  0.357300  0.649700  1.0  0.7324
  C  C165  1  0.312600  0.287000  0.522600  1.0  0.7595
  C  C166  1  0.319900  0.273700  0.445900  1.0  -0.1697
  C  C167  1  0.176300  0.284200  0.376200  1.0  -0.1568
  C  C168  1  0.072500  0.259300  0.426100  1.0  0.7243
  C  C169  1  0.880100  0.327800  0.673800  1.0  0.7759
  C  C170  1  0.809200  0.323900  0.623300  1.0  -0.1667
  C  C171  1  0.720500  0.448100  0.588500  1.0  -0.14
  C  C172  1  0.759900  0.514800  0.557800  1.0  0.7133
  C  C173  1  0.723100  0.978000  0.884400  1.0  0.7523
  C  C174  1  0.851600  0.967100  0.833500  1.0  -0.1623
  C  C175  1  0.931600  0.061700  0.858500  1.0  -0.1704
  C  C176  1  0.914500  0.142700  0.850300  1.0  0.7313
  C  C177  1  0.622200  0.213000  0.977400  1.0  0.7566
  C  C178  1  0.539500  0.226300  0.054100  1.0  -0.1684
  C  C179  1  0.336700  0.215800  0.123800  1.0  -0.1586
  C  C180  1  0.257900  0.240700  0.073900  1.0  0.7261
  C  C181  1  0.381700  0.172200  0.826200  1.0  0.7721
  C  C182  1  0.256400  0.176100  0.876700  1.0  -0.1644
  C  C183  1  0.257100  0.051900  0.911500  1.0  -0.1431
  C  C184  1  0.332500  0.985200  0.942200  1.0  0.7159
  C  C185  1  0.392500  0.884400  0.522000  1.0  0.7545
  C  C186  1  0.314900  0.833500  0.532900  1.0  -0.1659
  C  C187  1  0.209900  0.858500  0.438300  1.0  -0.1683
  C  C188  1  0.235200  0.850300  0.357300  1.0  0.7333
  C  C189  1  0.400400  0.977400  0.287000  1.0  0.7578
  C  C190  1  0.406400  0.054100  0.273700  1.0  -0.1669
  C  C191  1  0.539500  0.123800  0.284200  1.0  -0.1572
  C  C192  1  0.668200  0.073900  0.259300  1.0  0.7236
  C  C193  1  0.792100  0.826200  0.327800  1.0  0.773
  C  C194  1  0.866900  0.876700  0.323900  1.0  -0.1672
  C  C195  1  0.831400  0.911500  0.448100  1.0  -0.1448
  C  C196  1  0.725300  0.942200  0.514800  1.0  0.7162
  C  C197  1  0.298900  0.615600  0.978000  1.0  0.7548
  C  C198  1  0.181300  0.666500  0.967100  1.0  -0.1651
  C  C199  1  0.006700  0.641500  0.061700  1.0  -0.1671
  C  C200  1  0.942800  0.649700  0.142700  1.0  0.7325
  C  C201  1  0.164800  0.522600  0.213000  1.0  0.758
  C  C202  1  0.234200  0.445900  0.226300  1.0  -0.1667
  C  C203  1  0.447500  0.376200  0.215800  1.0  -0.157
  C  C204  1  0.501400  0.426100  0.240700  1.0  0.7248
  C  C205  1  0.446100  0.673800  0.172200  1.0  0.7717
  C  C206  1  0.567500  0.623300  0.176100  1.0  -0.1696
  C  C207  1  0.691000  0.588500  0.051900  1.0  -0.1444
  C  C208  1  0.682300  0.557800  0.985200  1.0  0.7161
  C  C209  1  0.914500  0.478000  0.384400  1.0  0.7555
  C  C210  1  0.847800  0.467100  0.333500  1.0  -0.1623
  C  C211  1  0.648200  0.561700  0.358500  1.0  -0.1703
  C  C212  1  0.592500  0.642700  0.350300  1.0  0.7313
  C  C213  1  0.687400  0.713000  0.477400  1.0  0.7606
  C  C214  1  0.680100  0.726300  0.554100  1.0  -0.1689
  C  C215  1  0.823700  0.715800  0.623800  1.0  -0.1571
  C  C216  1  0.927500  0.740700  0.573900  1.0  0.7219
  C  C217  1  0.119900  0.672200  0.326200  1.0  0.7744
  C  C218  1  0.190800  0.676100  0.376700  1.0  -0.1687
  C  C219  1  0.279500  0.551900  0.411500  1.0  -0.1416
  C  C220  1  0.240100  0.485200  0.442200  1.0  0.7147
  C  C221  1  0.276900  0.022000  0.115600  1.0  0.7539
  C  C222  1  0.148400  0.032900  0.166500  1.0  -0.1628
  C  C223  1  0.068400  0.938300  0.141500  1.0  -0.1711
  C  C224  1  0.085500  0.857300  0.149700  1.0  0.7324
  C  C225  1  0.377800  0.787000  0.022600  1.0  0.7571
  C  C226  1  0.460500  0.773700  0.945900  1.0  -0.1676
  C  C227  1  0.663300  0.784200  0.876200  1.0  -0.1553
  C  C228  1  0.742100  0.759300  0.926100  1.0  0.7262
  C  C229  1  0.618300  0.827800  0.173800  1.0  0.7736
  C  C230  1  0.743600  0.823900  0.123300  1.0  -0.1651
  C  C231  1  0.742900  0.948100  0.088500  1.0  -0.1432
  C  C232  1  0.667500  0.014800  0.057800  1.0  0.7144
  N  N233  1  0.687400  0.189530  0.537070  1.0  -0.5206
  N  N234  1  0.545300  0.917400  0.677400  1.0  -0.5009
  N  N235  1  0.197350  0.066350  0.619750  1.0  -0.4978
  N  N236  1  0.914000  0.310470  0.962930  1.0  -0.5227
  N  N237  1  0.640100  0.582600  0.822600  1.0  -0.5029
  N  N238  1  0.383450  0.433650  0.880250  1.0  -0.5032
  N  N239  1  0.224470  0.462930  0.689530  1.0  -0.5225
  N  N240  1  0.222700  0.322600  0.417400  1.0  -0.5068
  N  N241  1  0.817100  0.380250  0.566350  1.0  -0.4973
  N  N242  1  0.876930  0.037070  0.810470  1.0  -0.5228
  N  N243  1  0.462700  0.177400  0.082600  1.0  -0.5077
  N  N244  1  0.263700  0.119750  0.933650  1.0  -0.499
  N  N245  1  0.312600  0.810470  0.462930  1.0  -0.5186
  N  N246  1  0.454700  0.082600  0.322600  1.0  -0.5013
  N  N247  1  0.802650  0.933650  0.380250  1.0  -0.4984
  N  N248  1  0.086000  0.689530  0.037070  1.0  -0.5257
  N  N249  1  0.359900  0.417400  0.177400  1.0  -0.5021
  N  N250  1  0.616550  0.566350  0.119750  1.0  -0.5001
  N  N251  1  0.775530  0.537070  0.310470  1.0  -0.5249
  N  N252  1  0.777300  0.677400  0.582600  1.0  -0.5057
  N  N253  1  0.182900  0.619750  0.433650  1.0  -0.4988
  N  N254  1  0.123070  0.962930  0.189530  1.0  -0.522
  N  N255  1  0.537300  0.822600  0.917400  1.0  -0.5075
  N  N256  1  0.736300  0.880250  0.066350  1.0  -0.4998
  O  O257  1  0.540600  0.109410  0.541990  1.0  -0.777
  O  O258  1  0.614250  0.083740  0.422760  1.0  -0.6955
  O  O259  1  0.654480  0.180670  0.679570  1.0  -0.7276
  O  O260  1  0.846660  0.124370  0.671710  1.0  -0.6199
  O  O261  1  0.533020  0.064440  0.676120  1.0  -0.7898
  O  O262  1  0.667300  0.039970  0.740430  1.0  -0.6602
  O  O263  1  0.312800  0.991300  0.722900  1.0  -0.6602
  O  O264  1  0.251500  0.895700  0.774900  1.0  -0.6099
  O  O265  1  0.324060  0.147470  0.644610  1.0  -0.8111
  O  O266  1  0.157210  0.235580  0.697400  1.0  -0.6856
  O  O267  1  0.383730  0.045180  0.490160  1.0  -0.8192
  O  O268  1  0.252480  0.047290  0.430550  1.0  -0.5635
  O  O269  1  0.692000  0.390590  0.958010  1.0  -0.7761
  O  O270  1  0.620750  0.416260  0.077240  1.0  -0.6944
  O  O271  1  0.014720  0.319330  0.820430  1.0  -0.728
  O  O272  1  0.142740  0.375630  0.828290  1.0  -0.6188
  O  O273  1  0.773580  0.435560  0.823880  1.0  -0.7903
  O  O274  1  0.947700  0.460030  0.759570  1.0  -0.6594
  O  O275  1  0.527000  0.508700  0.777100  1.0  -0.6583
  O  O276  1  0.422100  0.604300  0.725100  1.0  -0.6172
  O  O277  1  0.616140  0.352530  0.855390  1.0  -0.8136
  O  O278  1  0.590190  0.264420  0.802600  1.0  -0.6859
  O  O279  1  0.419070  0.454820  0.009840  1.0  -0.8188
  O  O280  1  0.230320  0.452710  0.069450  1.0  -0.5635
  O  O281  1  0.082590  0.458010  0.609410  1.0  -0.7762
  O  O282  1  0.037010  0.577240  0.583740  1.0  -0.6951
  O  O283  1  0.334050  0.320430  0.680670  1.0  -0.7274
  O  O284  1  0.518370  0.328290  0.624370  1.0  -0.6202
  O  O285  1  0.209140  0.323880  0.564440  1.0  -0.789
  O  O286  1  0.407730  0.259570  0.539970  1.0  -0.6604
  O  O287  1  0.035700  0.277100  0.491300  1.0  -0.6597
  O  O288  1  0.026400  0.225100  0.395700  1.0  -0.6187
  O  O289  1  0.968670  0.355390  0.647470  1.0  -0.812
  O  O290  1  0.854610  0.302600  0.735580  1.0  -0.6858
  O  O291  1  0.873890  0.509840  0.545180  1.0  -0.8183
  O  O292  1  0.683030  0.569450  0.547290  1.0  -0.5641
  O  O293  1  0.650010  0.041990  0.890590  1.0  -0.7763
  O  O294  1  0.697990  0.922760  0.916260  1.0  -0.6972
  O  O295  1  0.835150  0.179570  0.819330  1.0  -0.7301
  O  O296  1  0.971030  0.171710  0.875630  1.0  -0.6197
  O  O297  1  0.597460  0.176120  0.935560  1.0  -0.7877
  O  O298  1  0.707270  0.240430  0.960030  1.0  -0.6596
  O  O299  1  0.304100  0.222900  0.008700  1.0  -0.6599
  O  O300  1  0.147200  0.274900  0.104300  1.0  -0.6116
  O  O301  1  0.471530  0.144610  0.852530  1.0  -0.8125
  O  O302  1  0.392790  0.197400  0.764420  1.0  -0.6846
  O  O303  1  0.428910  0.990160  0.954820  1.0  -0.8189
  O  O304  1  0.299770  0.930550  0.952710  1.0  -0.5623
  O  O305  1  0.459400  0.890590  0.458010  1.0  -0.7769
  O  O306  1  0.385750  0.916260  0.577240  1.0  -0.6936
  O  O307  1  0.345520  0.819330  0.320430  1.0  -0.7278
  O  O308  1  0.153340  0.875630  0.328290  1.0  -0.6189
  O  O309  1  0.466980  0.935560  0.323880  1.0  -0.7908
  O  O310  1  0.332700  0.960030  0.259570  1.0  -0.6603
  O  O311  1  0.687200  0.008700  0.277100  1.0  -0.6595
  O  O312  1  0.748500  0.104300  0.225100  1.0  -0.6117
  O  O313  1  0.675940  0.852530  0.355390  1.0  -0.8121
  O  O314  1  0.842790  0.764420  0.302600  1.0  -0.6859
  O  O315  1  0.616270  0.954820  0.509840  1.0  -0.8177
  O  O316  1  0.747520  0.952710  0.569450  1.0  -0.5649
  O  O317  1  0.308000  0.609410  0.041990  1.0  -0.7764
  O  O318  1  0.379250  0.583740  0.922760  1.0  -0.696
  O  O319  1  0.985280  0.680670  0.179570  1.0  -0.7298
  O  O320  1  0.857260  0.624370  0.171710  1.0  -0.6199
  O  O321  1  0.226420  0.564440  0.176120  1.0  -0.7902
  O  O322  1  0.052300  0.539970  0.240430  1.0  -0.6604
  O  O323  1  0.473000  0.491300  0.222900  1.0  -0.6579
  O  O324  1  0.577900  0.395700  0.274900  1.0  -0.6187
  O  O325  1  0.383860  0.647470  0.144610  1.0  -0.8132
  O  O326  1  0.409810  0.735580  0.197400  1.0  -0.6861
  O  O327  1  0.580930  0.545180  0.990160  1.0  -0.8185
  O  O328  1  0.769680  0.547290  0.930550  1.0  -0.5638
  O  O329  1  0.917410  0.541990  0.390590  1.0  -0.776
  O  O330  1  0.962990  0.422760  0.416260  1.0  -0.6958
  O  O331  1  0.665950  0.679570  0.319330  1.0  -0.729
  O  O332  1  0.481630  0.671710  0.375630  1.0  -0.6197
  O  O333  1  0.790860  0.676120  0.435560  1.0  -0.7895
  O  O334  1  0.592270  0.740430  0.460030  1.0  -0.6609
  O  O335  1  0.964300  0.722900  0.508700  1.0  -0.6591
  O  O336  1  0.973600  0.774900  0.604300  1.0  -0.6199
  O  O337  1  0.031330  0.644610  0.352530  1.0  -0.8126
  O  O338  1  0.145390  0.697400  0.264420  1.0  -0.6839
  O  O339  1  0.126110  0.490160  0.454820  1.0  -0.8175
  O  O340  1  0.316970  0.430550  0.452710  1.0  -0.5639
  O  O341  1  0.349990  0.958010  0.109410  1.0  -0.7758
  O  O342  1  0.302010  0.077240  0.083740  1.0  -0.6969
  O  O343  1  0.164850  0.820430  0.180670  1.0  -0.7286
  O  O344  1  0.028970  0.828290  0.124370  1.0  -0.6186
  O  O345  1  0.402540  0.823880  0.064440  1.0  -0.789
  O  O346  1  0.292730  0.759570  0.039970  1.0  -0.6602
  O  O347  1  0.695900  0.777100  0.991300  1.0  -0.6597
  O  O348  1  0.852800  0.725100  0.895700  1.0  -0.6132
  O  O349  1  0.528470  0.855390  0.147470  1.0  -0.8126
  O  O350  1  0.607210  0.802600  0.235580  1.0  -0.6861
  O  O351  1  0.571090  0.009840  0.045180  1.0  -0.8185
  O  O352  1  0.700230  0.069450  0.047290  1.0  -0.5623
