# generated using pymatgen
data_CoH16C24N2O5
_symmetry_space_group_name_H-M   'P 1'
_cell_length_a   9.29920000
_cell_length_b   11.51900000
_cell_length_c   13.26200000
_cell_angle_alpha   90.00000000
_cell_angle_beta   90.91300000
_cell_angle_gamma   90.00000000
_symmetry_Int_Tables_number   1
_chemical_formula_structural   CoH16C24N2O5
_chemical_formula_sum   'Co2 H32 C48 N4 O10'
_cell_volume   1420.41172912
_cell_formula_units_Z   2
loop_
 _symmetry_equiv_pos_site_id
 _symmetry_equiv_pos_as_xyz
  1  'x, y, z'
loop_
 _atom_site_type_symbol
 _atom_site_label
 _atom_site_symmetry_multiplicity
 _atom_site_fract_x
 _atom_site_fract_y
 _atom_site_fract_z
 _atom_site_occupancy
 _atom_site_charge
  Co  Co1  1  0.250000  0.449700  0.500000  1.0  1.011
  Co  Co2  1  0.750000  0.550300  0.500000  1.0  1.0091
  H  H3  1  0.761600  0.537400  0.234000  1.0  0.0992
  H  H4  1  0.664300  0.453900  0.089500  1.0  0.1241
  H  H5  1  0.974500  0.211800  0.096900  1.0  0.1315
  H  H6  1  0.071100  0.295600  0.241400  1.0  0.1022
  H  H7  1  0.068600  0.237900  0.425600  1.0  0.0725
  H  H8  1  0.068800  0.039500  0.416700  1.0  0.1228
  H  H9  1  0.150000  0.860400  0.365200  1.0  0.1386
  H  H10  1  0.156100  0.662000  0.368100  1.0  0.0729
  H  H11  1  0.738400  0.537400  0.766000  1.0  0.0994
  H  H12  1  0.835700  0.453900  0.910500  1.0  0.1248
  H  H13  1  0.525500  0.211800  0.903100  1.0  0.1326
  H  H14  1  0.428900  0.295600  0.758600  1.0  0.1025
  H  H15  1  0.431400  0.237900  0.574400  1.0  0.0725
  H  H16  1  0.431200  0.039500  0.583300  1.0  0.1238
  H  H17  1  0.350000  0.860400  0.634800  1.0  0.1383
  H  H18  1  0.343900  0.662000  0.631900  1.0  0.0726
  H  H19  1  0.238400  0.462600  0.766000  1.0  0.1
  H  H20  1  0.335700  0.546100  0.910500  1.0  0.1252
  H  H21  1  0.025500  0.788200  0.903100  1.0  0.1325
  H  H22  1  0.928900  0.704400  0.758600  1.0  0.1024
  H  H23  1  0.931400  0.762100  0.574400  1.0  0.0725
  H  H24  1  0.931200  0.960500  0.583300  1.0  0.1235
  H  H25  1  0.850000  0.139600  0.634800  1.0  0.1383
  H  H26  1  0.843900  0.338000  0.631900  1.0  0.0728
  H  H27  1  0.261600  0.462600  0.234000  1.0  0.0996
  H  H28  1  0.164300  0.546100  0.089500  1.0  0.1242
  H  H29  1  0.474500  0.788200  0.096900  1.0  0.1321
  H  H30  1  0.571100  0.704400  0.241400  1.0  0.103
  H  H31  1  0.568600  0.762100  0.425600  1.0  0.0726
  H  H32  1  0.568800  0.960500  0.416700  1.0  0.123
  H  H33  1  0.650000  0.139600  0.365200  1.0  0.1383
  H  H34  1  0.656100  0.338000  0.368100  1.0  0.0729
  C  C35  1  0.983300  0.475900  0.351290  1.0  0.6734
  C  C36  1  0.925600  0.424210  0.253870  1.0  -0.1998
  C  C37  1  0.804000  0.471500  0.206930  1.0  0.0169
  C  C38  1  0.745400  0.421800  0.120490  1.0  -0.2556
  C  C39  1  0.809000  0.324200  0.081090  1.0  0.2959
  C  C40  1  0.931300  0.276800  0.125050  1.0  -0.2473
  C  C41  1  0.988900  0.327200  0.211450  1.0  -0.0077
  C  C42  1  0.144600  0.197600  0.455560  1.0  0.1806
  C  C43  1  0.142400  0.077600  0.451650  1.0  -0.2188
  C  C44  1  0.191300  0.822200  0.420190  1.0  -0.212
  C  C45  1  0.194600  0.702300  0.422980  1.0  0.1892
  C  C46  1  0.516700  0.475900  0.648710  1.0  0.6738
  C  C47  1  0.574400  0.424210  0.746130  1.0  -0.1981
  C  C48  1  0.696000  0.471500  0.793070  1.0  0.0154
  C  C49  1  0.754600  0.421800  0.879510  1.0  -0.2537
  C  C50  1  0.691000  0.324200  0.918910  1.0  0.2969
  C  C51  1  0.568700  0.276800  0.874950  1.0  -0.2464
  C  C52  1  0.511100  0.327200  0.788550  1.0  -0.0096
  C  C53  1  0.355400  0.197600  0.544440  1.0  0.1809
  C  C54  1  0.357600  0.077600  0.548350  1.0  -0.2183
  C  C55  1  0.308700  0.822200  0.579810  1.0  -0.2128
  C  C56  1  0.305400  0.702300  0.577020  1.0  0.1896
  C  C57  1  0.016700  0.524100  0.648710  1.0  0.6741
  C  C58  1  0.074400  0.575790  0.746130  1.0  -0.1984
  C  C59  1  0.196000  0.528500  0.793070  1.0  0.0157
  C  C60  1  0.254600  0.578200  0.879510  1.0  -0.2533
  C  C61  1  0.191000  0.675800  0.918910  1.0  0.2969
  C  C62  1  0.068700  0.723200  0.874950  1.0  -0.2464
  C  C63  1  0.011100  0.672800  0.788550  1.0  -0.0156
  C  C64  1  0.855400  0.802400  0.544440  1.0  0.1806
  C  C65  1  0.857600  0.922400  0.548350  1.0  -0.2185
  C  C66  1  0.808700  0.177800  0.579810  1.0  -0.2124
  C  C67  1  0.805400  0.297700  0.577020  1.0  0.1899
  C  C68  1  0.483300  0.524100  0.351290  1.0  0.674
  C  C69  1  0.425600  0.575790  0.253870  1.0  -0.1998
  C  C70  1  0.304000  0.528500  0.206930  1.0  0.0174
  C  C71  1  0.245400  0.578200  0.120490  1.0  -0.2552
  C  C72  1  0.309000  0.675800  0.081090  1.0  0.2965
  C  C73  1  0.431300  0.723200  0.125050  1.0  -0.2458
  C  C74  1  0.488900  0.672800  0.211450  1.0  -0.0093
  C  C75  1  0.644600  0.802400  0.455560  1.0  0.1802
  C  C76  1  0.642400  0.922400  0.451650  1.0  -0.2187
  C  C77  1  0.691300  0.177800  0.420190  1.0  -0.2124
  C  C78  1  0.694600  0.297700  0.422980  1.0  0.1895
  C  C79  1  0.250000  0.014000  0.500000  1.0  0.0954
  C  C80  1  0.250000  0.885400  0.500000  1.0  0.0899
  C  C81  1  0.750000  0.986000  0.500000  1.0  0.0949
  C  C82  1  0.750000  0.114600  0.500000  1.0  0.0898
  N  N83  1  0.250000  0.258700  0.500000  1.0  -0.3215
  N  N84  1  0.250000  0.640800  0.500000  1.0  -0.3484
  N  N85  1  0.750000  0.741300  0.500000  1.0  -0.3212
  N  N86  1  0.750000  0.359200  0.500000  1.0  -0.3503
  O  O87  1  0.103310  0.437520  0.380900  1.0  -0.5928
  O  O88  1  0.911220  0.553110  0.393290  1.0  -0.6086
  O  O89  1  0.396690  0.437520  0.619100  1.0  -0.5922
  O  O90  1  0.588780  0.553110  0.606710  1.0  -0.6085
  O  O91  1  0.896690  0.562480  0.619100  1.0  -0.5924
  O  O92  1  0.088780  0.446890  0.606710  1.0  -0.6081
  O  O93  1  0.603310  0.562480  0.380900  1.0  -0.5934
  O  O94  1  0.411220  0.446890  0.393290  1.0  -0.6087
  O  O95  1  0.750000  0.263200  0.000000  1.0  -0.2846
  O  O96  1  0.250000  0.736800  0.000000  1.0  -0.2839
