# generated using pymatgen
data_Na2ZnH13C27(N2O5)3
_symmetry_space_group_name_H-M   'P 1'
_cell_length_a   22.83900000
_cell_length_b   22.83900000
_cell_length_c   33.07800000
_cell_angle_alpha   90.00000000
_cell_angle_beta   90.00000000
_cell_angle_gamma   90.00000000
_symmetry_Int_Tables_number   1
_chemical_formula_structural   Na2ZnH13C27(N2O5)3
_chemical_formula_sum   'Na16 Zn8 H104 C216 N48 O120'
_cell_volume   17254.14374684
_cell_formula_units_Z   8
loop_
 _symmetry_equiv_pos_site_id
 _symmetry_equiv_pos_as_xyz
  1  'x, y, z'
loop_
 _atom_site_type_symbol
 _atom_site_label
 _atom_site_symmetry_multiplicity
 _atom_site_fract_x
 _atom_site_fract_y
 _atom_site_fract_z
 _atom_site_occupancy
 _atom_site_charge
  Na  Na1  1  0.469160  0.933630  0.557160  1.0  0.9543
  Na  Na2  1  0.460390  0.891180  0.457200  1.0  0.9542
  Na  Na3  1  0.530840  0.066370  0.057160  1.0  0.9536
  Na  Na4  1  0.539610  0.108820  0.957200  1.0  0.9531
  Na  Na5  1  0.566370  0.969160  0.307160  1.0  0.9545
  Na  Na6  1  0.608820  0.960390  0.207200  1.0  0.9536
  Na  Na7  1  0.433630  0.030840  0.807160  1.0  0.9542
  Na  Na8  1  0.391180  0.039610  0.707200  1.0  0.9547
  Na  Na9  1  0.030840  0.433630  0.192840  1.0  0.9538
  Na  Na10  1  0.039610  0.391180  0.292800  1.0  0.954
  Na  Na11  1  0.969160  0.566370  0.692840  1.0  0.9539
  Na  Na12  1  0.960390  0.608820  0.792800  1.0  0.9545
  Na  Na13  1  0.933630  0.469160  0.442840  1.0  0.9534
  Na  Na14  1  0.891180  0.460390  0.542800  1.0  0.9552
  Na  Na15  1  0.066370  0.530840  0.942840  1.0  0.9543
  Na  Na16  1  0.108820  0.539610  0.042800  1.0  0.9544
  Zn  Zn17  1  0.423610  0.041000  0.607360  1.0  1.0946
  Zn  Zn18  1  0.576390  0.959000  0.107360  1.0  1.0939
  Zn  Zn19  1  0.459000  0.923610  0.357360  1.0  1.092
  Zn  Zn20  1  0.541000  0.076390  0.857360  1.0  1.0921
  Zn  Zn21  1  0.076390  0.541000  0.142640  1.0  1.0952
  Zn  Zn22  1  0.923610  0.459000  0.642640  1.0  1.0949
  Zn  Zn23  1  0.041000  0.423610  0.392640  1.0  1.0923
  Zn  Zn24  1  0.959000  0.576390  0.892640  1.0  1.0922
  H  H25  1  0.738700  0.252400  0.386600  1.0  0.1462
  H  H26  1  0.866700  0.356200  0.430700  1.0  0.1365
  H  H27  1  0.878600  0.297800  0.317500  1.0  0.1334
  H  H28  1  0.564100  0.155800  0.515400  1.0  0.1278
  H  H29  1  0.578900  0.098400  0.400800  1.0  0.141
  H  H30  1  0.464600  0.023900  0.475000  1.0  0.1252
  H  H31  1  0.749100  0.405300  0.674700  1.0  0.1306
  H  H32  1  0.765700  0.322800  0.568200  1.0  0.1097
  H  H33  1  0.615000  0.324900  0.623300  1.0  0.1439
  H  H34  1  0.789400  0.335200  0.468900  1.0  0.2888
  H  H35  1  0.625500  0.184500  0.420200  1.0  0.3213
  H  H36  1  0.634100  0.250800  0.575100  1.0  0.3147
  H  H37  1  0.488300  0.814600  0.572200  1.0  0.448
  H  H38  1  0.261300  0.747600  0.886600  1.0  0.1467
  H  H39  1  0.133300  0.643800  0.930700  1.0  0.1368
  H  H40  1  0.121400  0.702200  0.817500  1.0  0.1334
  H  H41  1  0.435900  0.844200  0.015400  1.0  0.1283
  H  H42  1  0.421100  0.901600  0.900800  1.0  0.1411
  H  H43  1  0.535400  0.976100  0.975000  1.0  0.1248
  H  H44  1  0.250900  0.594700  0.174700  1.0  0.1309
  H  H45  1  0.234300  0.677200  0.068200  1.0  0.1095
  H  H46  1  0.385000  0.675100  0.123300  1.0  0.1431
  H  H47  1  0.210600  0.664800  0.968900  1.0  0.2895
  H  H48  1  0.374500  0.815500  0.920200  1.0  0.3211
  H  H49  1  0.365900  0.749200  0.075100  1.0  0.3153
  H  H50  1  0.511700  0.185400  0.072200  1.0  0.4449
  H  H51  1  0.247600  0.238700  0.136600  1.0  0.1463
  H  H52  1  0.143800  0.366700  0.180700  1.0  0.137
  H  H53  1  0.202200  0.378600  0.067500  1.0  0.1331
  H  H54  1  0.344200  0.064100  0.265400  1.0  0.1306
  H  H55  1  0.401600  0.078900  0.150800  1.0  0.1411
  H  H56  1  0.476100  0.964600  0.225000  1.0  0.1261
  H  H57  1  0.094700  0.249100  0.424700  1.0  0.1307
  H  H58  1  0.177200  0.265700  0.318200  1.0  0.1096
  H  H59  1  0.175100  0.115000  0.373300  1.0  0.1414
  H  H60  1  0.164800  0.289400  0.218900  1.0  0.2896
  H  H61  1  0.315500  0.125500  0.170200  1.0  0.3258
  H  H62  1  0.249200  0.134100  0.325100  1.0  0.3156
  H  H63  1  0.685400  0.988300  0.322200  1.0  0.4457
  H  H64  1  0.752400  0.761300  0.636600  1.0  0.146
  H  H65  1  0.856200  0.633300  0.680700  1.0  0.1373
  H  H66  1  0.797800  0.621400  0.567500  1.0  0.1331
  H  H67  1  0.655800  0.935900  0.765400  1.0  0.1305
  H  H68  1  0.598400  0.921100  0.650800  1.0  0.1416
  H  H69  1  0.523900  0.035400  0.725000  1.0  0.1262
  H  H70  1  0.905300  0.750900  0.924700  1.0  0.1302
  H  H71  1  0.822800  0.734300  0.818200  1.0  0.11
  H  H72  1  0.824900  0.885000  0.873300  1.0  0.1409
  H  H73  1  0.835200  0.710600  0.718900  1.0  0.2892
  H  H74  1  0.684500  0.874500  0.670200  1.0  0.3256
  H  H75  1  0.750800  0.865900  0.825100  1.0  0.3157
  H  H76  1  0.314600  0.011700  0.822200  1.0  0.448
  H  H77  1  0.761300  0.752400  0.363400  1.0  0.1459
  H  H78  1  0.633300  0.856200  0.319300  1.0  0.1368
  H  H79  1  0.621400  0.797800  0.432500  1.0  0.133
  H  H80  1  0.935900  0.655800  0.234600  1.0  0.1306
  H  H81  1  0.921100  0.598400  0.349200  1.0  0.1407
  H  H82  1  0.035400  0.523900  0.275000  1.0  0.1254
  H  H83  1  0.750900  0.905300  0.075300  1.0  0.1305
  H  H84  1  0.734300  0.822800  0.181800  1.0  0.1091
  H  H85  1  0.885000  0.824900  0.126700  1.0  0.1413
  H  H86  1  0.710600  0.835200  0.281100  1.0  0.2886
  H  H87  1  0.874500  0.684500  0.329800  1.0  0.3239
  H  H88  1  0.865900  0.750800  0.174900  1.0  0.3149
  H  H89  1  0.011700  0.314600  0.177800  1.0  0.4543
  H  H90  1  0.238700  0.247600  0.863400  1.0  0.1464
  H  H91  1  0.366700  0.143800  0.819300  1.0  0.1365
  H  H92  1  0.378600  0.202200  0.932500  1.0  0.1329
  H  H93  1  0.064100  0.344200  0.734600  1.0  0.1311
  H  H94  1  0.078900  0.401600  0.849200  1.0  0.1405
  H  H95  1  0.964600  0.476100  0.775000  1.0  0.1252
  H  H96  1  0.249100  0.094700  0.575300  1.0  0.1302
  H  H97  1  0.265700  0.177200  0.681800  1.0  0.1088
  H  H98  1  0.115000  0.175100  0.626700  1.0  0.1417
  H  H99  1  0.289400  0.164800  0.781100  1.0  0.2879
  H  H100  1  0.125500  0.315500  0.829800  1.0  0.3237
  H  H101  1  0.134100  0.249200  0.674900  1.0  0.3152
  H  H102  1  0.988300  0.685400  0.677800  1.0  0.4501
  H  H103  1  0.252400  0.738700  0.613400  1.0  0.1466
  H  H104  1  0.356200  0.866700  0.569300  1.0  0.1366
  H  H105  1  0.297800  0.878600  0.682500  1.0  0.133
  H  H106  1  0.155800  0.564100  0.484600  1.0  0.1288
  H  H107  1  0.098400  0.578900  0.599200  1.0  0.1406
  H  H108  1  0.023900  0.464600  0.525000  1.0  0.1264
  H  H109  1  0.405300  0.749100  0.325300  1.0  0.1299
  H  H110  1  0.322800  0.765700  0.431800  1.0  0.1087
  H  H111  1  0.324900  0.615000  0.376700  1.0  0.1438
  H  H112  1  0.335200  0.789400  0.531100  1.0  0.2883
  H  H113  1  0.184500  0.625500  0.579800  1.0  0.3214
  H  H114  1  0.250800  0.634100  0.424900  1.0  0.314
  H  H115  1  0.814600  0.488300  0.427800  1.0  0.4485
  H  H116  1  0.747600  0.261300  0.113400  1.0  0.1467
  H  H117  1  0.643800  0.133300  0.069300  1.0  0.137
  H  H118  1  0.702200  0.121400  0.182500  1.0  0.1323
  H  H119  1  0.844200  0.435900  0.984600  1.0  0.1286
  H  H120  1  0.901600  0.421100  0.099200  1.0  0.1409
  H  H121  1  0.976100  0.535400  0.025000  1.0  0.1259
  H  H122  1  0.594700  0.250900  0.825300  1.0  0.1306
  H  H123  1  0.677200  0.234300  0.931800  1.0  0.11
  H  H124  1  0.675100  0.385000  0.876700  1.0  0.143
  H  H125  1  0.664800  0.210600  0.031100  1.0  0.2884
  H  H126  1  0.815500  0.374500  0.079800  1.0  0.322
  H  H127  1  0.749200  0.365900  0.924900  1.0  0.3152
  H  H128  1  0.185400  0.511700  0.927800  1.0  0.4465
  C  C129  1  0.806400  0.269300  0.345760  1.0  -0.1128
  C  C130  1  0.774000  0.272000  0.383370  1.0  -0.0172
  C  C131  1  0.798300  0.305500  0.414510  1.0  0.2291
  C  C132  1  0.851500  0.333800  0.409650  1.0  -0.0772
  C  C133  1  0.882700  0.329100  0.373400  1.0  -0.1265
  C  C134  1  0.858900  0.298700  0.342050  1.0  0.0461
  C  C135  1  0.510930  0.088550  0.501240  1.0  -0.132
  C  C136  1  0.552900  0.130900  0.494560  1.0  -0.0083
  C  C137  1  0.578200  0.136400  0.457200  1.0  0.2066
  C  C138  1  0.560900  0.096500  0.425990  1.0  -0.0663
  C  C139  1  0.517740  0.055330  0.432820  1.0  -0.1007
  C  C140  1  0.493520  0.051670  0.470170  1.0  0.0203
  C  C141  1  0.501640  0.015750  0.398580  1.0  0.7396
  C  C142  1  0.485260  0.085100  0.544000  1.0  0.7296
  C  C143  1  0.939920  0.361900  0.367690  1.0  0.7364
  C  C144  1  0.779000  0.236500  0.310960  1.0  0.7049
  C  C145  1  0.725900  0.281100  0.469920  1.0  0.4258
  C  C146  1  0.655600  0.213300  0.469640  1.0  0.4559
  C  C147  1  0.677200  0.261300  0.527040  1.0  0.5494
  C  C148  1  0.830300  0.390500  0.615220  1.0  0.7619
  C  C149  1  0.768300  0.365400  0.619890  1.0  -0.09
  C  C150  1  0.732800  0.382500  0.654290  1.0  0.0575
  C  C151  1  0.678300  0.366100  0.656700  1.0  -0.0525
  C  C152  1  0.743400  0.331500  0.590940  1.0  -0.0541
  C  C153  1  0.655100  0.331800  0.623600  1.0  -0.1076
  C  C154  1  0.687300  0.308800  0.592840  1.0  0.2798
  C  C155  1  0.634600  0.384500  0.688400  1.0  0.3573
  C  C156  1  0.193600  0.730700  0.845760  1.0  -0.1112
  C  C157  1  0.226000  0.728000  0.883370  1.0  -0.0167
  C  C158  1  0.201700  0.694500  0.914510  1.0  0.229
  C  C159  1  0.148500  0.666200  0.909650  1.0  -0.0777
  C  C160  1  0.117300  0.670900  0.873400  1.0  -0.1275
  C  C161  1  0.141100  0.701300  0.842050  1.0  0.0467
  C  C162  1  0.489070  0.911450  0.001240  1.0  -0.1329
  C  C163  1  0.447100  0.869100  0.994560  1.0  -0.0074
  C  C164  1  0.421800  0.863600  0.957200  1.0  0.2069
  C  C165  1  0.439100  0.903500  0.925990  1.0  -0.0656
  C  C166  1  0.482260  0.944670  0.932820  1.0  -0.0997
  C  C167  1  0.506480  0.948330  0.970170  1.0  0.0189
  C  C168  1  0.498360  0.984250  0.898580  1.0  0.7393
  C  C169  1  0.514740  0.914900  0.044000  1.0  0.7305
  C  C170  1  0.060080  0.638100  0.867690  1.0  0.7363
  C  C171  1  0.221000  0.763500  0.810960  1.0  0.7044
  C  C172  1  0.274100  0.718900  0.969920  1.0  0.4274
  C  C173  1  0.344400  0.786700  0.969640  1.0  0.4546
  C  C174  1  0.322800  0.738700  0.027040  1.0  0.5498
  C  C175  1  0.169700  0.609500  0.115220  1.0  0.7625
  C  C176  1  0.231700  0.634600  0.119890  1.0  -0.0898
  C  C177  1  0.267200  0.617500  0.154290  1.0  0.0565
  C  C178  1  0.321700  0.633900  0.156700  1.0  -0.0524
  C  C179  1  0.256600  0.668500  0.090940  1.0  -0.0546
  C  C180  1  0.344900  0.668200  0.123600  1.0  -0.1039
  C  C181  1  0.312700  0.691200  0.092840  1.0  0.2784
  C  C182  1  0.365400  0.615500  0.188400  1.0  0.3577
  C  C183  1  0.230700  0.306400  0.095760  1.0  -0.1117
  C  C184  1  0.228000  0.274000  0.133370  1.0  -0.0155
  C  C185  1  0.194500  0.298300  0.164510  1.0  0.2293
  C  C186  1  0.166200  0.351500  0.159650  1.0  -0.0784
  C  C187  1  0.170900  0.382700  0.123400  1.0  -0.1264
  C  C188  1  0.201300  0.358900  0.092050  1.0  0.0465
  C  C189  1  0.411450  0.010930  0.251240  1.0  -0.133
  C  C190  1  0.369100  0.052900  0.244560  1.0  -0.0143
  C  C191  1  0.363600  0.078200  0.207200  1.0  0.2048
  C  C192  1  0.403500  0.060900  0.175990  1.0  -0.0661
  C  C193  1  0.444670  0.017740  0.182820  1.0  -0.1008
  C  C194  1  0.448330  0.993520  0.220170  1.0  0.0195
  C  C195  1  0.484250  0.001640  0.148580  1.0  0.7407
  C  C196  1  0.414900  0.985260  0.294000  1.0  0.7294
  C  C197  1  0.138100  0.439920  0.117690  1.0  0.7368
  C  C198  1  0.263500  0.279000  0.060960  1.0  0.7062
  C  C199  1  0.218900  0.225900  0.219920  1.0  0.4294
  C  C200  1  0.286700  0.155600  0.219640  1.0  0.4533
  C  C201  1  0.238700  0.177200  0.277040  1.0  0.5578
  C  C202  1  0.109500  0.330300  0.365220  1.0  0.7608
  C  C203  1  0.134600  0.268300  0.369890  1.0  -0.0887
  C  C204  1  0.117500  0.232800  0.404290  1.0  0.0568
  C  C205  1  0.133900  0.178300  0.406700  1.0  -0.0484
  C  C206  1  0.168500  0.243400  0.340940  1.0  -0.0563
  C  C207  1  0.168200  0.155100  0.373600  1.0  -0.1049
  C  C208  1  0.191200  0.187300  0.342840  1.0  0.2787
  C  C209  1  0.115500  0.134600  0.438400  1.0  0.3668
  C  C210  1  0.769300  0.693600  0.595760  1.0  -0.1121
  C  C211  1  0.772000  0.726000  0.633370  1.0  -0.0175
  C  C212  1  0.805500  0.701700  0.664510  1.0  0.2295
  C  C213  1  0.833800  0.648500  0.659650  1.0  -0.0776
  C  C214  1  0.829100  0.617300  0.623400  1.0  -0.1268
  C  C215  1  0.798700  0.641100  0.592050  1.0  0.0466
  C  C216  1  0.588550  0.989070  0.751240  1.0  -0.1331
  C  C217  1  0.630900  0.947100  0.744560  1.0  -0.0147
  C  C218  1  0.636400  0.921800  0.707200  1.0  0.205
  C  C219  1  0.596500  0.939100  0.675990  1.0  -0.066
  C  C220  1  0.555330  0.982260  0.682820  1.0  -0.0994
  C  C221  1  0.551670  0.006480  0.720170  1.0  0.018
  C  C222  1  0.515750  0.998360  0.648580  1.0  0.7406
  C  C223  1  0.585100  0.014740  0.794000  1.0  0.7302
  C  C224  1  0.861900  0.560080  0.617690  1.0  0.7367
  C  C225  1  0.736500  0.721000  0.560960  1.0  0.707
  C  C226  1  0.781100  0.774100  0.719920  1.0  0.4299
  C  C227  1  0.713300  0.844400  0.719640  1.0  0.4535
  C  C228  1  0.761300  0.822800  0.777040  1.0  0.5587
  C  C229  1  0.890500  0.669700  0.865220  1.0  0.7605
  C  C230  1  0.865400  0.731700  0.869890  1.0  -0.0898
  C  C231  1  0.882500  0.767200  0.904290  1.0  0.0562
  C  C232  1  0.866100  0.821700  0.906700  1.0  -0.0486
  C  C233  1  0.831500  0.756600  0.840940  1.0  -0.0569
  C  C234  1  0.831800  0.844900  0.873600  1.0  -0.1059
  C  C235  1  0.808800  0.812700  0.842840  1.0  0.2794
  C  C236  1  0.884500  0.865400  0.938400  1.0  0.3645
  C  C237  1  0.693600  0.769300  0.404240  1.0  -0.1118
  C  C238  1  0.726000  0.772000  0.366630  1.0  -0.0173
  C  C239  1  0.701700  0.805500  0.335490  1.0  0.2297
  C  C240  1  0.648500  0.833800  0.340350  1.0  -0.077
  C  C241  1  0.617300  0.829100  0.376600  1.0  -0.1276
  C  C242  1  0.641100  0.798700  0.407950  1.0  0.0471
  C  C243  1  0.989070  0.588550  0.248760  1.0  -0.1293
  C  C244  1  0.947100  0.630900  0.255440  1.0  -0.0111
  C  C245  1  0.921800  0.636400  0.292800  1.0  0.2061
  C  C246  1  0.939100  0.596500  0.324010  1.0  -0.0665
  C  C247  1  0.982260  0.555330  0.317180  1.0  -0.1007
  C  C248  1  0.006480  0.551670  0.279830  1.0  0.0193
  C  C249  1  0.998360  0.515750  0.351420  1.0  0.7396
  C  C250  1  0.014740  0.585100  0.206000  1.0  0.7293
  C  C251  1  0.560080  0.861900  0.382310  1.0  0.7354
  C  C252  1  0.721000  0.736500  0.439040  1.0  0.7084
  C  C253  1  0.774100  0.781100  0.280080  1.0  0.4307
  C  C254  1  0.844400  0.713300  0.280360  1.0  0.4523
  C  C255  1  0.822800  0.761300  0.222960  1.0  0.5579
  C  C256  1  0.669700  0.890500  0.134780  1.0  0.7627
  C  C257  1  0.731700  0.865400  0.130110  1.0  -0.0895
  C  C258  1  0.767200  0.882500  0.095710  1.0  0.0555
  C  C259  1  0.821700  0.866100  0.093300  1.0  -0.0512
  C  C260  1  0.756600  0.831500  0.159060  1.0  -0.0517
  C  C261  1  0.844900  0.831800  0.126400  1.0  -0.1029
  C  C262  1  0.812700  0.808800  0.157160  1.0  0.2786
  C  C263  1  0.865400  0.884500  0.061600  1.0  0.3662
  C  C264  1  0.306400  0.230700  0.904240  1.0  -0.1113
  C  C265  1  0.274000  0.228000  0.866630  1.0  -0.0172
  C  C266  1  0.298300  0.194500  0.835490  1.0  0.2296
  C  C267  1  0.351500  0.166200  0.840350  1.0  -0.0764
  C  C268  1  0.382700  0.170900  0.876600  1.0  -0.1266
  C  C269  1  0.358900  0.201300  0.907950  1.0  0.047
  C  C270  1  0.010930  0.411450  0.748760  1.0  -0.1298
  C  C271  1  0.052900  0.369100  0.755440  1.0  -0.0111
  C  C272  1  0.078200  0.363600  0.792800  1.0  0.2066
  C  C273  1  0.060900  0.403500  0.824010  1.0  -0.0657
  C  C274  1  0.017740  0.444670  0.817180  1.0  -0.1014
  C  C275  1  0.993520  0.448330  0.779830  1.0  0.0195
  C  C276  1  0.001640  0.484250  0.851420  1.0  0.7393
  C  C277  1  0.985260  0.414900  0.706000  1.0  0.7292
  C  C278  1  0.439920  0.138100  0.882310  1.0  0.7361
  C  C279  1  0.279000  0.263500  0.939040  1.0  0.706
  C  C280  1  0.225900  0.218900  0.780080  1.0  0.4292
  C  C281  1  0.155600  0.286700  0.780360  1.0  0.4526
  C  C282  1  0.177200  0.238700  0.722960  1.0  0.5591
  C  C283  1  0.330300  0.109500  0.634780  1.0  0.762
  C  C284  1  0.268300  0.134600  0.630110  1.0  -0.0891
  C  C285  1  0.232800  0.117500  0.595710  1.0  0.0553
  C  C286  1  0.178300  0.133900  0.593300  1.0  -0.0526
  C  C287  1  0.243400  0.168500  0.659060  1.0  -0.0533
  C  C288  1  0.155100  0.168200  0.626400  1.0  -0.1075
  C  C289  1  0.187300  0.191200  0.657160  1.0  0.2794
  C  C290  1  0.134600  0.115500  0.561600  1.0  0.3683
  C  C291  1  0.269300  0.806400  0.654240  1.0  -0.1119
  C  C292  1  0.272000  0.774000  0.616630  1.0  -0.0158
  C  C293  1  0.305500  0.798300  0.585490  1.0  0.23
  C  C294  1  0.333800  0.851500  0.590350  1.0  -0.077
  C  C295  1  0.329100  0.882700  0.626600  1.0  -0.1267
  C  C296  1  0.298700  0.858900  0.657950  1.0  0.0465
  C  C297  1  0.088550  0.510930  0.498760  1.0  -0.1311
  C  C298  1  0.130900  0.552900  0.505440  1.0  -0.0099
  C  C299  1  0.136400  0.578200  0.542800  1.0  0.2051
  C  C300  1  0.096500  0.560900  0.574010  1.0  -0.066
  C  C301  1  0.055330  0.517740  0.567180  1.0  -0.1002
  C  C302  1  0.051670  0.493520  0.529830  1.0  0.0193
  C  C303  1  0.015750  0.501640  0.601420  1.0  0.7406
  C  C304  1  0.085100  0.485260  0.456000  1.0  0.7293
  C  C305  1  0.361900  0.939920  0.632310  1.0  0.7364
  C  C306  1  0.236500  0.779000  0.689040  1.0  0.7052
  C  C307  1  0.281100  0.725900  0.530080  1.0  0.4265
  C  C308  1  0.213300  0.655600  0.530360  1.0  0.4549
  C  C309  1  0.261300  0.677200  0.472960  1.0  0.5507
  C  C310  1  0.390500  0.830300  0.384780  1.0  0.7607
  C  C311  1  0.365400  0.768300  0.380110  1.0  -0.088
  C  C312  1  0.382500  0.732800  0.345710  1.0  0.0549
  C  C313  1  0.366100  0.678300  0.343300  1.0  -0.0486
  C  C314  1  0.331500  0.743400  0.409060  1.0  -0.0564
  C  C315  1  0.331800  0.655100  0.376400  1.0  -0.1045
  C  C316  1  0.308800  0.687300  0.407160  1.0  0.2801
  C  C317  1  0.384500  0.634600  0.311600  1.0  0.3567
  C  C318  1  0.730700  0.193600  0.154240  1.0  -0.1118
  C  C319  1  0.728000  0.226000  0.116630  1.0  -0.0184
  C  C320  1  0.694500  0.201700  0.085490  1.0  0.2299
  C  C321  1  0.666200  0.148500  0.090350  1.0  -0.0781
  C  C322  1  0.670900  0.117300  0.126600  1.0  -0.1267
  C  C323  1  0.701300  0.141100  0.157950  1.0  0.0471
  C  C324  1  0.911450  0.489070  0.998760  1.0  -0.1302
  C  C325  1  0.869100  0.447100  0.005440  1.0  -0.0082
  C  C326  1  0.863600  0.421800  0.042800  1.0  0.2037
  C  C327  1  0.903500  0.439100  0.074010  1.0  -0.0659
  C  C328  1  0.944670  0.482260  0.067180  1.0  -0.1012
  C  C329  1  0.948330  0.506480  0.029830  1.0  0.0183
  C  C330  1  0.984250  0.498360  0.101420  1.0  0.7406
  C  C331  1  0.914900  0.514740  0.956000  1.0  0.7288
  C  C332  1  0.638100  0.060080  0.132310  1.0  0.7365
  C  C333  1  0.763500  0.221000  0.189040  1.0  0.7059
  C  C334  1  0.718900  0.274100  0.030080  1.0  0.4269
  C  C335  1  0.786700  0.344400  0.030360  1.0  0.455
  C  C336  1  0.738700  0.322800  0.972960  1.0  0.5498
  C  C337  1  0.609500  0.169700  0.884780  1.0  0.7615
  C  C338  1  0.634600  0.231700  0.880110  1.0  -0.0898
  C  C339  1  0.617500  0.267200  0.845710  1.0  0.0553
  C  C340  1  0.633900  0.321700  0.843300  1.0  -0.0476
  C  C341  1  0.668500  0.256600  0.909060  1.0  -0.054
  C  C342  1  0.668200  0.344900  0.876400  1.0  -0.1052
  C  C343  1  0.691200  0.312700  0.907160  1.0  0.2777
  C  C344  1  0.615500  0.365400  0.811600  1.0  0.3569
  N  N345  1  0.772900  0.310200  0.453200  1.0  -0.3071
  N  N346  1  0.718000  0.293400  0.509970  1.0  -0.5271
  N  N347  1  0.698400  0.240400  0.448360  1.0  -0.5459
  N  N348  1  0.621100  0.179500  0.445740  1.0  -0.4221
  N  N349  1  0.640590  0.223600  0.507500  1.0  -0.5705
  N  N350  1  0.662900  0.271300  0.566020  1.0  -0.2965
  N  N351  1  0.227100  0.689800  0.953200  1.0  -0.3077
  N  N352  1  0.282000  0.706600  0.009970  1.0  -0.5278
  N  N353  1  0.301600  0.759600  0.948360  1.0  -0.545
  N  N354  1  0.378900  0.820500  0.945740  1.0  -0.4231
  N  N355  1  0.359410  0.776400  0.007500  1.0  -0.57
  N  N356  1  0.337100  0.728700  0.066020  1.0  -0.296
  N  N357  1  0.189800  0.272900  0.203200  1.0  -0.3078
  N  N358  1  0.206600  0.218000  0.259970  1.0  -0.5304
  N  N359  1  0.259600  0.198400  0.198360  1.0  -0.548
  N  N360  1  0.320500  0.121100  0.195740  1.0  -0.4303
  N  N361  1  0.276400  0.140590  0.257500  1.0  -0.5676
  N  N362  1  0.228700  0.162900  0.316020  1.0  -0.2952
  N  N363  1  0.810200  0.727100  0.703200  1.0  -0.3094
  N  N364  1  0.793400  0.782000  0.759970  1.0  -0.531
  N  N365  1  0.740400  0.801600  0.698360  1.0  -0.5491
  N  N366  1  0.679500  0.878900  0.695740  1.0  -0.4289
  N  N367  1  0.723600  0.859410  0.757500  1.0  -0.5696
  N  N368  1  0.771300  0.837100  0.816020  1.0  -0.2953
  N  N369  1  0.727100  0.810200  0.296800  1.0  -0.306
  N  N370  1  0.782000  0.793400  0.240030  1.0  -0.5312
  N  N371  1  0.801600  0.740400  0.301640  1.0  -0.5498
  N  N372  1  0.878900  0.679500  0.304260  1.0  -0.4279
  N  N373  1  0.859410  0.723600  0.242500  1.0  -0.5692
  N  N374  1  0.837100  0.771300  0.183980  1.0  -0.2954
  N  N375  1  0.272900  0.189800  0.796800  1.0  -0.3068
  N  N376  1  0.218000  0.206600  0.740030  1.0  -0.5285
  N  N377  1  0.198400  0.259600  0.801640  1.0  -0.5491
  N  N378  1  0.121100  0.320500  0.804260  1.0  -0.427
  N  N379  1  0.140590  0.276400  0.742500  1.0  -0.5696
  N  N380  1  0.162900  0.228700  0.683980  1.0  -0.2971
  N  N381  1  0.310200  0.772900  0.546800  1.0  -0.3084
  N  N382  1  0.293400  0.718000  0.490030  1.0  -0.5273
  N  N383  1  0.240400  0.698400  0.551640  1.0  -0.5459
  N  N384  1  0.179500  0.621100  0.554260  1.0  -0.4202
  N  N385  1  0.223600  0.640590  0.492500  1.0  -0.5687
  N  N386  1  0.271300  0.662900  0.433980  1.0  -0.294
  N  N387  1  0.689800  0.227100  0.046800  1.0  -0.3069
  N  N388  1  0.706600  0.282000  0.990030  1.0  -0.5269
  N  N389  1  0.759600  0.301600  0.051640  1.0  -0.5467
  N  N390  1  0.820500  0.378900  0.054260  1.0  -0.4215
  N  N391  1  0.776400  0.359410  0.992500  1.0  -0.5676
  N  N392  1  0.728700  0.337100  0.933980  1.0  -0.2961
  O  O393  1  0.526380  0.022400  0.365800  1.0  -0.7066
  O  O394  1  0.538300  0.916720  0.505750  1.0  -0.5461
  O  O395  1  0.465190  0.975580  0.405210  1.0  -0.6402
  O  O396  1  0.494700  0.841400  0.588200  1.0  -0.6473
  O  O397  1  0.492660  0.121990  0.569000  1.0  -0.4145
  O  O398  1  0.391800  0.933920  0.501970  1.0  -0.5737
  O  O399  1  0.453870  0.039530  0.550130  1.0  -0.6751
  O  O400  1  0.968940  0.353950  0.335730  1.0  -0.7078
  O  O401  1  0.959040  0.389380  0.397580  1.0  -0.6157
  O  O402  1  0.852950  0.411210  0.646390  1.0  -0.5487
  O  O403  1  0.852620  0.390180  0.581530  1.0  -0.6012
  O  O404  1  0.737000  0.208600  0.316070  1.0  -0.3497
  O  O405  1  0.808200  0.239000  0.280020  1.0  -0.3878
  O  O406  1  0.587500  0.361400  0.694060  1.0  -0.4062
  O  O407  1  0.661900  0.414100  0.717800  1.0  -0.4472
  O  O408  1  0.473620  0.977600  0.865800  1.0  -0.7063
  O  O409  1  0.461700  0.083280  0.005750  1.0  -0.5454
  O  O410  1  0.534810  0.024420  0.905210  1.0  -0.6402
  O  O411  1  0.505300  0.158600  0.088200  1.0  -0.6475
  O  O412  1  0.507340  0.878010  0.069000  1.0  -0.4156
  O  O413  1  0.608200  0.066080  0.001970  1.0  -0.5748
  O  O414  1  0.546130  0.960470  0.050130  1.0  -0.6744
  O  O415  1  0.031060  0.646050  0.835730  1.0  -0.7077
  O  O416  1  0.040960  0.610620  0.897580  1.0  -0.6167
  O  O417  1  0.147050  0.588790  0.146390  1.0  -0.5496
  O  O418  1  0.147380  0.609820  0.081530  1.0  -0.6012
  O  O419  1  0.263000  0.791400  0.816070  1.0  -0.3473
  O  O420  1  0.191800  0.761000  0.780020  1.0  -0.3881
  O  O421  1  0.412500  0.638600  0.194060  1.0  -0.4066
  O  O422  1  0.338100  0.585900  0.217800  1.0  -0.4495
  O  O423  1  0.477600  0.026380  0.115800  1.0  -0.7108
  O  O424  1  0.583280  0.038300  0.255750  1.0  -0.5451
  O  O425  1  0.524420  0.965190  0.155210  1.0  -0.6387
  O  O426  1  0.658600  0.994700  0.338200  1.0  -0.6434
  O  O427  1  0.378010  0.992660  0.319000  1.0  -0.4193
  O  O428  1  0.566080  0.891800  0.251970  1.0  -0.5695
  O  O429  1  0.460470  0.953870  0.300130  1.0  -0.6737
  O  O430  1  0.146050  0.468940  0.085730  1.0  -0.7091
  O  O431  1  0.110620  0.459040  0.147580  1.0  -0.6169
  O  O432  1  0.088790  0.352950  0.396390  1.0  -0.5514
  O  O433  1  0.109820  0.352620  0.331530  1.0  -0.6023
  O  O434  1  0.291400  0.237000  0.066070  1.0  -0.3453
  O  O435  1  0.261000  0.308200  0.030020  1.0  -0.3885
  O  O436  1  0.138600  0.087500  0.444060  1.0  -0.3934
  O  O437  1  0.085900  0.161900  0.467800  1.0  -0.449
  O  O438  1  0.522400  0.973620  0.615800  1.0  -0.7099
  O  O439  1  0.416720  0.961700  0.755750  1.0  -0.5462
  O  O440  1  0.475580  0.034810  0.655210  1.0  -0.639
  O  O441  1  0.341400  0.005300  0.838200  1.0  -0.6416
  O  O442  1  0.621990  0.007340  0.819000  1.0  -0.4197
  O  O443  1  0.433920  0.108200  0.751970  1.0  -0.5697
  O  O444  1  0.539530  0.046130  0.800130  1.0  -0.6742
  O  O445  1  0.853950  0.531060  0.585730  1.0  -0.7087
  O  O446  1  0.889380  0.540960  0.647580  1.0  -0.6173
  O  O447  1  0.911210  0.647050  0.896390  1.0  -0.5517
  O  O448  1  0.890180  0.647380  0.831530  1.0  -0.602
  O  O449  1  0.708600  0.763000  0.566070  1.0  -0.3513
  O  O450  1  0.739000  0.691800  0.530020  1.0  -0.3886
  O  O451  1  0.861400  0.912500  0.944060  1.0  -0.3913
  O  O452  1  0.914100  0.838100  0.967800  1.0  -0.4482
  O  O453  1  0.973620  0.522400  0.384200  1.0  -0.7081
  O  O454  1  0.961700  0.416720  0.244250  1.0  -0.5449
  O  O455  1  0.034810  0.475580  0.344790  1.0  -0.6404
  O  O456  1  0.005300  0.341400  0.161800  1.0  -0.6409
  O  O457  1  0.007340  0.621990  0.181000  1.0  -0.4162
  O  O458  1  0.108200  0.433920  0.248030  1.0  -0.575
  O  O459  1  0.046130  0.539530  0.199870  1.0  -0.6747
  O  O460  1  0.531060  0.853950  0.414270  1.0  -0.7091
  O  O461  1  0.540960  0.889380  0.352420  1.0  -0.6164
  O  O462  1  0.647050  0.911210  0.103610  1.0  -0.5484
  O  O463  1  0.647380  0.890180  0.168470  1.0  -0.6023
  O  O464  1  0.763000  0.708600  0.433930  1.0  -0.3529
  O  O465  1  0.691800  0.739000  0.469980  1.0  -0.3867
  O  O466  1  0.912500  0.861400  0.055940  1.0  -0.3987
  O  O467  1  0.838100  0.914100  0.032200  1.0  -0.4478
  O  O468  1  0.026380  0.477600  0.884200  1.0  -0.7077
  O  O469  1  0.038300  0.583280  0.744250  1.0  -0.5454
  O  O470  1  0.965190  0.524420  0.844790  1.0  -0.6394
  O  O471  1  0.994700  0.658600  0.661800  1.0  -0.6395
  O  O472  1  0.992660  0.378010  0.681000  1.0  -0.4163
  O  O473  1  0.891800  0.566080  0.748030  1.0  -0.5733
  O  O474  1  0.953870  0.460470  0.699870  1.0  -0.6742
  O  O475  1  0.468940  0.146050  0.914270  1.0  -0.7103
  O  O476  1  0.459040  0.110620  0.852420  1.0  -0.6167
  O  O477  1  0.352950  0.088790  0.603610  1.0  -0.5488
  O  O478  1  0.352620  0.109820  0.668470  1.0  -0.6028
  O  O479  1  0.237000  0.291400  0.933930  1.0  -0.348
  O  O480  1  0.308200  0.261000  0.969980  1.0  -0.3859
  O  O481  1  0.087500  0.138600  0.555940  1.0  -0.4008
  O  O482  1  0.161900  0.085900  0.532200  1.0  -0.4463
  O  O483  1  0.022400  0.526380  0.634200  1.0  -0.7119
  O  O484  1  0.916720  0.538300  0.494250  1.0  -0.5453
  O  O485  1  0.975580  0.465190  0.594790  1.0  -0.6384
  O  O486  1  0.841400  0.494700  0.411800  1.0  -0.6504
  O  O487  1  0.121990  0.492660  0.431000  1.0  -0.4194
  O  O488  1  0.933920  0.391800  0.498030  1.0  -0.5701
  O  O489  1  0.039530  0.453870  0.449870  1.0  -0.6723
  O  O490  1  0.353950  0.968940  0.664270  1.0  -0.7115
  O  O491  1  0.389380  0.959040  0.602420  1.0  -0.6175
  O  O492  1  0.411210  0.852950  0.353610  1.0  -0.5511
  O  O493  1  0.390180  0.852620  0.418470  1.0  -0.6043
  O  O494  1  0.208600  0.737000  0.683930  1.0  -0.3472
  O  O495  1  0.239000  0.808200  0.719980  1.0  -0.3877
  O  O496  1  0.361400  0.587500  0.305940  1.0  -0.3991
  O  O497  1  0.414100  0.661900  0.282200  1.0  -0.4465
  O  O498  1  0.977600  0.473620  0.134200  1.0  -0.7116
  O  O499  1  0.083280  0.461700  0.994250  1.0  -0.545
  O  O500  1  0.024420  0.534810  0.094790  1.0  -0.6404
  O  O501  1  0.158600  0.505300  0.911800  1.0  -0.6507
  O  O502  1  0.878010  0.507340  0.931000  1.0  -0.4211
  O  O503  1  0.066080  0.608200  0.998030  1.0  -0.5694
  O  O504  1  0.960470  0.546130  0.949870  1.0  -0.6751
  O  O505  1  0.646050  0.031060  0.164270  1.0  -0.7106
  O  O506  1  0.610620  0.040960  0.102420  1.0  -0.6166
  O  O507  1  0.588790  0.147050  0.853610  1.0  -0.5504
  O  O508  1  0.609820  0.147380  0.918470  1.0  -0.6027
  O  O509  1  0.791400  0.263000  0.183930  1.0  -0.345
  O  O510  1  0.761000  0.191800  0.219980  1.0  -0.3865
  O  O511  1  0.638600  0.412500  0.805940  1.0  -0.3978
  O  O512  1  0.585900  0.338100  0.782200  1.0  -0.4472
