# generated using pymatgen
data_TbH6C12N3O8
_symmetry_space_group_name_H-M   'P 1'
_cell_length_a   24.48100000
_cell_length_b   9.35350000
_cell_length_c   10.36690000
_cell_angle_alpha   90.00000000
_cell_angle_beta   97.33600000
_cell_angle_gamma   90.00000000
_symmetry_Int_Tables_number   1
_chemical_formula_structural   TbH6C12N3O8
_chemical_formula_sum   'Tb4 H24 C48 N12 O32'
_cell_volume   2354.41289398
_cell_formula_units_Z   4
loop_
 _symmetry_equiv_pos_site_id
 _symmetry_equiv_pos_as_xyz
  1  'x, y, z'
loop_
 _atom_site_type_symbol
 _atom_site_label
 _atom_site_symmetry_multiplicity
 _atom_site_fract_x
 _atom_site_fract_y
 _atom_site_fract_z
 _atom_site_occupancy
 _atom_site_charge
  Tb  Tb1  1  0.000000  0.986730  0.250000  1.0  2.325
  Tb  Tb2  1  0.500000  0.486730  0.250000  1.0  2.325
  Tb  Tb3  1  0.000000  0.013270  0.750000  1.0  2.3308
  Tb  Tb4  1  0.500000  0.513270  0.750000  1.0  2.3308
  H  H5  1  0.162500  0.784200  0.412500  1.0  0.1784
  H  H6  1  0.294700  0.836200  0.675600  1.0  0.1731
  H  H7  1  0.244800  0.968600  0.796300  1.0  0.155
  H  H8  1  0.662500  0.284200  0.412500  1.0  0.1784
  H  H9  1  0.794700  0.336200  0.675600  1.0  0.1731
  H  H10  1  0.744800  0.468600  0.796300  1.0  0.155
  H  H11  1  0.837500  0.784200  0.087500  1.0  0.1783
  H  H12  1  0.705300  0.836200  0.824400  1.0  0.1731
  H  H13  1  0.755200  0.968600  0.703700  1.0  0.1552
  H  H14  1  0.337500  0.284200  0.087500  1.0  0.1783
  H  H15  1  0.205300  0.336200  0.824400  1.0  0.1731
  H  H16  1  0.255200  0.468600  0.703700  1.0  0.1552
  H  H17  1  0.837500  0.215800  0.587500  1.0  0.1786
  H  H18  1  0.705300  0.163800  0.324400  1.0  0.173
  H  H19  1  0.755200  0.031400  0.203700  1.0  0.1555
  H  H20  1  0.337500  0.715800  0.587500  1.0  0.1786
  H  H21  1  0.205300  0.663800  0.324400  1.0  0.173
  H  H22  1  0.255200  0.531400  0.203700  1.0  0.1555
  H  H23  1  0.162500  0.215800  0.912500  1.0  0.1786
  H  H24  1  0.294700  0.163800  0.175600  1.0  0.1731
  H  H25  1  0.244800  0.031400  0.296300  1.0  0.1551
  H  H26  1  0.662500  0.715800  0.912500  1.0  0.1786
  H  H27  1  0.794700  0.663800  0.175600  1.0  0.1731
  H  H28  1  0.744800  0.531400  0.296300  1.0  0.1551
  C  C29  1  0.086500  0.929200  0.520100  1.0  0.7959
  C  C30  1  0.146400  0.903800  0.565600  1.0  0.0215
  C  C31  1  0.177900  0.821500  0.492100  1.0  -0.0521
  C  C32  1  0.232300  0.795300  0.538000  1.0  0.0659
  C  C33  1  0.257500  0.852300  0.648800  1.0  -0.1562
  C  C34  1  0.227800  0.931700  0.718000  1.0  0.2135
  C  C35  1  0.586500  0.429200  0.520100  1.0  0.7959
  C  C36  1  0.646400  0.403800  0.565600  1.0  0.0215
  C  C37  1  0.677900  0.321500  0.492100  1.0  -0.0521
  C  C38  1  0.732300  0.295300  0.538000  1.0  0.0659
  C  C39  1  0.757500  0.352300  0.648800  1.0  -0.1562
  C  C40  1  0.727800  0.431700  0.718000  1.0  0.2135
  C  C41  1  0.913500  0.929200  0.979900  1.0  0.7949
  C  C42  1  0.853600  0.903800  0.934400  1.0  0.0233
  C  C43  1  0.822100  0.821500  0.007900  1.0  -0.0516
  C  C44  1  0.767700  0.795300  0.962000  1.0  0.067
  C  C45  1  0.742500  0.852300  0.851200  1.0  -0.1574
  C  C46  1  0.772200  0.931700  0.782000  1.0  0.2133
  C  C47  1  0.413500  0.429200  0.979900  1.0  0.7949
  C  C48  1  0.353600  0.403800  0.934400  1.0  0.0233
  C  C49  1  0.322100  0.321500  0.007900  1.0  -0.0516
  C  C50  1  0.267700  0.295300  0.962000  1.0  0.067
  C  C51  1  0.242500  0.352300  0.851200  1.0  -0.1574
  C  C52  1  0.272200  0.431700  0.782000  1.0  0.2133
  C  C53  1  0.913500  0.070800  0.479900  1.0  0.7948
  C  C54  1  0.853600  0.096200  0.434400  1.0  0.0225
  C  C55  1  0.822100  0.178500  0.507900  1.0  -0.0529
  C  C56  1  0.767700  0.204700  0.462000  1.0  0.0664
  C  C57  1  0.742500  0.147700  0.351200  1.0  -0.1541
  C  C58  1  0.772200  0.068300  0.282000  1.0  0.2142
  C  C59  1  0.413500  0.570800  0.479900  1.0  0.7948
  C  C60  1  0.353600  0.596200  0.434400  1.0  0.0225
  C  C61  1  0.322100  0.678500  0.507900  1.0  -0.0529
  C  C62  1  0.267700  0.704700  0.462000  1.0  0.0664
  C  C63  1  0.242500  0.647700  0.351200  1.0  -0.1541
  C  C64  1  0.272200  0.568300  0.282000  1.0  0.2142
  C  C65  1  0.086500  0.070800  0.020100  1.0  0.7955
  C  C66  1  0.146400  0.096200  0.065600  1.0  0.0222
  C  C67  1  0.177900  0.178500  0.992100  1.0  -0.0529
  C  C68  1  0.232300  0.204700  0.038000  1.0  0.0657
  C  C69  1  0.257500  0.147700  0.148800  1.0  -0.1529
  C  C70  1  0.227800  0.068300  0.218000  1.0  0.2141
  C  C71  1  0.586500  0.570800  0.020100  1.0  0.7955
  C  C72  1  0.646400  0.596200  0.065600  1.0  0.0222
  C  C73  1  0.677900  0.678500  0.992100  1.0  -0.0529
  C  C74  1  0.732300  0.704700  0.038000  1.0  0.0657
  C  C75  1  0.757500  0.647700  0.148800  1.0  -0.1529
  C  C76  1  0.727800  0.568300  0.218000  1.0  0.2141
  N  N77  1  0.171600  0.964300  0.681100  1.0  -0.3837
  N  N78  1  0.671600  0.464300  0.681100  1.0  -0.3837
  N  N79  1  0.828400  0.964300  0.818900  1.0  -0.3832
  N  N80  1  0.328400  0.464300  0.818900  1.0  -0.3832
  N  N81  1  0.828400  0.035700  0.318900  1.0  -0.3824
  N  N82  1  0.328400  0.535700  0.318900  1.0  -0.3824
  N  N83  1  0.171600  0.035700  0.181100  1.0  -0.3835
  N  N84  1  0.671600  0.535700  0.181100  1.0  -0.3835
  N  N85  1  0.000000  0.687000  0.250000  1.0  0.2744
  N  N86  1  0.500000  0.187000  0.250000  1.0  0.2744
  N  N87  1  0.000000  0.313000  0.750000  1.0  0.2738
  N  N88  1  0.500000  0.813000  0.750000  1.0  0.2738
  O  O89  1  0.058000  0.978000  0.599500  1.0  -0.6608
  O  O90  1  0.070500  0.904000  0.405100  1.0  -0.5845
  O  O91  1  0.969400  0.745300  0.317100  1.0  -0.529
  O  O92  1  0.971700  0.530000  0.240300  1.0  -0.5404
  O  O93  1  0.558000  0.478000  0.599500  1.0  -0.6608
  O  O94  1  0.570500  0.404000  0.405100  1.0  -0.5845
  O  O95  1  0.469400  0.245300  0.317100  1.0  -0.529
  O  O96  1  0.471700  0.030000  0.240300  1.0  -0.5404
  O  O97  1  0.942000  0.978000  0.900500  1.0  -0.661
  O  O98  1  0.929500  0.904000  0.094900  1.0  -0.5833
  O  O99  1  0.030600  0.745300  0.182900  1.0  -0.5286
  O  O100  1  0.028300  0.530000  0.259700  1.0  -0.5411
  O  O101  1  0.442000  0.478000  0.900500  1.0  -0.661
  O  O102  1  0.429500  0.404000  0.094900  1.0  -0.5833
  O  O103  1  0.530600  0.245300  0.182900  1.0  -0.5286
  O  O104  1  0.528300  0.030000  0.259700  1.0  -0.5411
  O  O105  1  0.942000  0.022000  0.400500  1.0  -0.6611
  O  O106  1  0.929500  0.096000  0.594900  1.0  -0.583
  O  O107  1  0.030600  0.254700  0.682900  1.0  -0.529
  O  O108  1  0.028300  0.470000  0.759700  1.0  -0.5415
  O  O109  1  0.442000  0.522000  0.400500  1.0  -0.6611
  O  O110  1  0.429500  0.596000  0.594900  1.0  -0.583
  O  O111  1  0.530600  0.754700  0.682900  1.0  -0.529
  O  O112  1  0.528300  0.970000  0.759700  1.0  -0.5415
  O  O113  1  0.058000  0.022000  0.099500  1.0  -0.6608
  O  O114  1  0.070500  0.096000  0.905100  1.0  -0.5841
  O  O115  1  0.969400  0.254700  0.817100  1.0  -0.5306
  O  O116  1  0.971700  0.470000  0.740300  1.0  -0.5398
  O  O117  1  0.558000  0.522000  0.099500  1.0  -0.6608
  O  O118  1  0.570500  0.596000  0.905100  1.0  -0.5841
  O  O119  1  0.469400  0.754700  0.817100  1.0  -0.5306
  O  O120  1  0.471700  0.970000  0.740300  1.0  -0.5398
