# generated using pymatgen
data_DyH9C18(NO2)3
_symmetry_space_group_name_H-M   'P 1'
_cell_length_a   9.88560000
_cell_length_b   11.68270000
_cell_length_c   13.44100000
_cell_angle_alpha   66.86300000
_cell_angle_beta   86.99500000
_cell_angle_gamma   76.58200000
_symmetry_Int_Tables_number   1
_chemical_formula_structural   DyH9C18(NO2)3
_chemical_formula_sum   'Dy2 H18 C36 N6 O12'
_cell_volume   1387.18326395
_cell_formula_units_Z   2
loop_
 _symmetry_equiv_pos_site_id
 _symmetry_equiv_pos_as_xyz
  1  'x, y, z'
loop_
 _atom_site_type_symbol
 _atom_site_label
 _atom_site_symmetry_multiplicity
 _atom_site_fract_x
 _atom_site_fract_y
 _atom_site_fract_z
 _atom_site_occupancy
 _atom_site_charge
  Dy  Dy1  1  0.763310  0.973860  0.995740  1.0  2.3232
  Dy  Dy2  1  0.236690  0.026140  0.004260  1.0  2.3233
  H  H3  1  0.987200  0.375000  0.556800  1.0  0.055
  H  H4  1  0.948100  0.263100  0.732200  1.0  0.1124
  H  H5  1  0.562400  0.490100  0.680900  1.0  0.1133
  H  H6  1  0.698800  0.674700  0.341800  1.0  0.116
  H  H7  1  0.316300  0.901200  0.293200  1.0  0.1057
  H  H8  1  0.278400  0.796000  0.474200  1.0  0.0751
  H  H9  1  0.687800  0.908100  0.443500  1.0  0.0617
  H  H10  1  0.755500  0.934700  0.272300  1.0  0.1104
  H  H11  1  0.093700  0.032500  0.339800  1.0  0.116
  H  H12  1  0.012800  0.625000  0.443200  1.0  0.055
  H  H13  1  0.051900  0.736900  0.267800  1.0  0.1117
  H  H14  1  0.437600  0.509900  0.319100  1.0  0.1131
  H  H15  1  0.301200  0.325300  0.658200  1.0  0.116
  H  H16  1  0.683700  0.098800  0.706800  1.0  0.106
  H  H17  1  0.721600  0.204000  0.525800  1.0  0.075
  H  H18  1  0.312200  0.091900  0.556500  1.0  0.0621
  H  H19  1  0.244500  0.065300  0.727700  1.0  0.1109
  H  H20  1  0.906300  0.967500  0.660200  1.0  0.1165
  C  C21  1  0.710000  0.291300  0.841500  1.0  0.7004
  C  C22  1  0.901000  0.399000  0.582800  1.0  0.1783
  C  C23  1  0.879000  0.330500  0.687900  1.0  -0.1735
  C  C24  1  0.749000  0.365000  0.727000  1.0  -0.0575
  C  C25  1  0.650500  0.465900  0.657500  1.0  -0.0986
  C  C26  1  0.685400  0.530100  0.552400  1.0  0.1795
  C  C27  1  0.580300  0.642100  0.473300  1.0  0.1856
  C  C28  1  0.612200  0.700700  0.366400  1.0  -0.0918
  C  C29  1  0.511500  0.798900  0.297800  1.0  -0.1216
  C  C30  1  0.385900  0.835200  0.338200  1.0  -0.1246
  C  C31  1  0.364100  0.772000  0.447300  1.0  0.1604
  C  C32  1  0.534000  0.867400  0.180300  1.0  0.8615
  C  C33  1  0.985400  0.005800  0.173400  1.0  0.8131
  C  C34  1  0.771000  0.933000  0.422300  1.0  0.177
  C  C35  1  0.809700  0.949700  0.318400  1.0  -0.1416
  C  C36  1  0.933600  0.989400  0.284800  1.0  -0.1076
  C  C37  1  0.010100  0.007500  0.358600  1.0  -0.0605
  C  C38  1  0.960800  0.988000  0.460000  1.0  0.1938
  C  C39  1  0.290000  0.708700  0.158500  1.0  0.7025
  C  C40  1  0.099000  0.601000  0.417200  1.0  0.1797
  C  C41  1  0.121000  0.669500  0.312100  1.0  -0.173
  C  C42  1  0.251000  0.635000  0.273000  1.0  -0.06
  C  C43  1  0.349500  0.534100  0.342500  1.0  -0.1008
  C  C44  1  0.314600  0.469900  0.447600  1.0  0.1793
  C  C45  1  0.419700  0.357900  0.526700  1.0  0.1863
  C  C46  1  0.387800  0.299300  0.633600  1.0  -0.0908
  C  C47  1  0.488500  0.201100  0.702200  1.0  -0.1221
  C  C48  1  0.614100  0.164800  0.661800  1.0  -0.1265
  C  C49  1  0.635900  0.228000  0.552700  1.0  0.1601
  C  C50  1  0.466000  0.132600  0.819700  1.0  0.8639
  C  C51  1  0.014600  0.994200  0.826600  1.0  0.8226
  C  C52  1  0.229000  0.067000  0.577700  1.0  0.1774
  C  C53  1  0.190300  0.050300  0.681600  1.0  -0.1396
  C  C54  1  0.066400  0.010600  0.715200  1.0  -0.1089
  C  C55  1  0.989900  0.992500  0.641400  1.0  -0.0656
  C  C56  1  0.039200  0.012000  0.540000  1.0  0.1948
  N  N57  1  0.809600  0.497000  0.514200  1.0  -0.4058
  N  N58  1  0.462700  0.677200  0.515500  1.0  -0.3826
  N  N59  1  0.840100  0.950500  0.493900  1.0  -0.3898
  N  N60  1  0.190400  0.503000  0.485800  1.0  -0.407
  N  N61  1  0.537300  0.322800  0.484500  1.0  -0.3824
  N  N62  1  0.159900  0.049500  0.506100  1.0  -0.3907
  O  O63  1  0.603700  0.336200  0.876500  1.0  -0.5734
  O  O64  1  0.797200  0.184200  0.892700  1.0  -0.7876
  O  O65  1  0.430800  0.941500  0.121200  1.0  -0.8206
  O  O66  1  0.654800  0.854100  0.149900  1.0  -0.7729
  O  O67  1  0.104000  0.027000  0.155600  1.0  -0.7028
  O  O68  1  0.909500  0.996300  0.108300  1.0  -0.8235
  O  O69  1  0.396300  0.663800  0.123500  1.0  -0.5724
  O  O70  1  0.202800  0.815800  0.107300  1.0  -0.7904
  O  O71  1  0.569200  0.058500  0.878800  1.0  -0.8239
  O  O72  1  0.345200  0.145900  0.850100  1.0  -0.7755
  O  O73  1  0.896000  0.973000  0.844400  1.0  -0.7062
  O  O74  1  0.090500  0.003700  0.891700  1.0  -0.8229
