# generated using pymatgen
data_EuH6C12N3O7
_symmetry_space_group_name_H-M   'P 1'
_cell_length_a   9.22360000
_cell_length_b   10.36570000
_cell_length_c   12.88390000
_cell_angle_alpha   75.57600000
_cell_angle_beta   69.46900000
_cell_angle_gamma   86.16800000
_symmetry_Int_Tables_number   1
_chemical_formula_structural   EuH6C12N3O7
_chemical_formula_sum   'Eu2 H12 C24 N6 O14'
_cell_volume   1116.92757411
_cell_formula_units_Z   2
loop_
 _symmetry_equiv_pos_site_id
 _symmetry_equiv_pos_as_xyz
  1  'x, y, z'
loop_
 _atom_site_type_symbol
 _atom_site_label
 _atom_site_symmetry_multiplicity
 _atom_site_fract_x
 _atom_site_fract_y
 _atom_site_fract_z
 _atom_site_occupancy
 _atom_site_charge
  Eu  Eu1  1  0.955740  0.750830  0.998030  1.0  2.152
  Eu  Eu2  1  0.044260  0.249170  0.001970  1.0  2.152
  H  H3  1  0.377300  0.432300  0.690500  1.0  0.1178
  H  H4  1  0.106600  0.745400  0.642300  1.0  0.1238
  H  H5  1  0.249700  0.787500  0.450700  1.0  0.0754
  H  H6  1  0.922400  0.934900  0.691200  1.0  0.1172
  H  H7  1  0.177600  0.248400  0.663800  1.0  0.1268
  H  H8  1  0.246900  0.288100  0.469300  1.0  0.0896
  H  H9  1  0.622700  0.567700  0.309500  1.0  0.1188
  H  H10  1  0.893400  0.254600  0.357700  1.0  0.1241
  H  H11  1  0.750300  0.212500  0.549300  1.0  0.0754
  H  H12  1  0.077600  0.065100  0.308800  1.0  0.1184
  H  H13  1  0.822400  0.751600  0.336200  1.0  0.1273
  H  H14  1  0.753100  0.711900  0.530700  1.0  0.0893
  C  C15  1  0.136900  0.554700  0.815100  1.0  0.734
  C  C16  1  0.433600  0.539700  0.525300  1.0  0.177
  C  C17  1  0.350700  0.506100  0.643100  1.0  -0.0277
  C  C18  1  0.226900  0.585500  0.688200  1.0  -0.1149
  C  C19  1  0.188900  0.691500  0.615200  1.0  -0.1033
  C  C20  1  0.277000  0.715900  0.500000  1.0  0.1732
  C  C21  1  0.990100  0.055900  0.830400  1.0  0.7466
  C  C22  1  0.031200  0.039800  0.529600  1.0  0.1536
  C  C23  1  0.986900  0.008500  0.647500  1.0  -0.0513
  C  C24  1  0.039500  0.088000  0.700200  1.0  -0.1275
  C  C25  1  0.138700  0.193900  0.631700  1.0  -0.1155
  C  C26  1  0.179000  0.217200  0.514700  1.0  0.1596
  C  C27  1  0.863100  0.445300  0.184900  1.0  0.7331
  C  C28  1  0.566400  0.460300  0.474700  1.0  0.1755
  C  C29  1  0.649300  0.493900  0.356900  1.0  -0.0282
  C  C30  1  0.773100  0.414500  0.311800  1.0  -0.1151
  C  C31  1  0.811100  0.308500  0.384800  1.0  -0.1038
  C  C32  1  0.723000  0.284100  0.500000  1.0  0.1748
  C  C33  1  0.009900  0.944100  0.169600  1.0  0.7462
  C  C34  1  0.968800  0.960200  0.470400  1.0  0.152
  C  C35  1  0.013100  0.991500  0.352500  1.0  -0.0516
  C  C36  1  0.960500  0.912000  0.299800  1.0  -0.1257
  C  C37  1  0.861300  0.806100  0.368300  1.0  -0.1169
  C  C38  1  0.821000  0.782800  0.485300  1.0  0.1599
  N  N39  1  0.397300  0.643600  0.454600  1.0  -0.4408
  N  N40  1  0.126100  0.143400  0.462500  1.0  -0.4206
  N  N41  1  0.623600  0.760500  0.047500  1.0  0.8614
  N  N42  1  0.602700  0.356400  0.545400  1.0  -0.4322
  N  N43  1  0.873900  0.856600  0.537500  1.0  -0.4155
  N  N44  1  0.376400  0.239500  0.952500  1.0  0.863
  O  O45  1  0.167700  0.450600  0.875500  1.0  -0.6974
  O  O46  1  0.037000  0.637500  0.851000  1.0  -0.7295
  O  O47  1  0.906400  0.954500  0.885700  1.0  -0.6873
  O  O48  1  0.036700  0.135600  0.869800  1.0  -0.7425
  O  O49  1  0.712900  0.721100  0.961700  1.0  -0.6274
  O  O50  1  0.680300  0.802700  0.106900  1.0  -0.5497
  O  O51  1  0.482000  0.756900  0.067900  1.0  -0.3795
  O  O52  1  0.832300  0.549400  0.124500  1.0  -0.6989
  O  O53  1  0.963000  0.362500  0.149000  1.0  -0.7276
  O  O54  1  0.093600  0.045500  0.114300  1.0  -0.6853
  O  O55  1  0.963300  0.864400  0.130200  1.0  -0.7432
  O  O56  1  0.287100  0.278900  0.038300  1.0  -0.6278
  O  O57  1  0.319700  0.197300  0.893100  1.0  -0.5518
  O  O58  1  0.518000  0.243100  0.932100  1.0  -0.3797
