# generated using pymatgen
data_DyH6C12N3O7
_symmetry_space_group_name_H-M   'P 1'
_cell_length_a   9.24140000
_cell_length_b   10.30400000
_cell_length_c   12.82910000
_cell_angle_alpha   76.38800000
_cell_angle_beta   69.43100000
_cell_angle_gamma   86.37700000
_symmetry_Int_Tables_number   1
_chemical_formula_structural   DyH6C12N3O7
_chemical_formula_sum   'Dy2 H12 C24 N6 O14'
_cell_volume   1111.37000386
_cell_formula_units_Z   2
loop_
 _symmetry_equiv_pos_site_id
 _symmetry_equiv_pos_as_xyz
  1  'x, y, z'
loop_
 _atom_site_type_symbol
 _atom_site_label
 _atom_site_symmetry_multiplicity
 _atom_site_fract_x
 _atom_site_fract_y
 _atom_site_fract_z
 _atom_site_occupancy
 _atom_site_charge
  Dy  Dy1  1  0.459680  0.251110  0.997670  1.0  2.2983
  Dy  Dy2  1  0.540320  0.748890  0.002330  1.0  2.2971
  H  H3  1  0.126300  0.073100  0.309100  1.0  0.1241
  H  H4  1  0.245900  0.706100  0.546500  1.0  0.0804
  H  H5  1  0.580300  0.568600  0.307200  1.0  0.1288
  H  H6  1  0.318800  0.253500  0.331300  1.0  0.1324
  H  H7  1  0.249100  0.215000  0.529200  1.0  0.0798
  H  H8  1  0.392700  0.751900  0.350900  1.0  0.1258
  H  H9  1  0.873700  0.926900  0.690900  1.0  0.1241
  H  H10  1  0.754100  0.293900  0.453500  1.0  0.08
  H  H11  1  0.419700  0.431400  0.692800  1.0  0.1303
  H  H12  1  0.681200  0.746500  0.668700  1.0  0.1321
  H  H13  1  0.750900  0.785000  0.470800  1.0  0.0809
  H  H14  1  0.607300  0.248100  0.649100  1.0  0.1256
  C  C15  1  0.507500  0.447600  0.168400  1.0  0.73
  C  C16  1  0.066700  0.959000  0.473000  1.0  0.1583
  C  C17  1  0.150900  0.995300  0.355900  1.0  -0.0622
  C  C18  1  0.470700  0.460600  0.469600  1.0  0.1657
  C  C19  1  0.219800  0.780400  0.497100  1.0  0.1542
  C  C20  1  0.514500  0.493300  0.351100  1.0  -0.105
  C  C21  1  0.460700  0.414500  0.297900  1.0  -0.1477
  C  C22  1  0.363200  0.948100  0.183600  1.0  0.7159
  C  C23  1  0.271600  0.914700  0.309600  1.0  -0.1294
  C  C24  1  0.359400  0.308600  0.364800  1.0  -0.1214
  C  C25  1  0.319800  0.286300  0.483000  1.0  0.1689
  C  C26  1  0.309000  0.807000  0.380100  1.0  -0.1139
  C  C27  1  0.492500  0.552400  0.831600  1.0  0.7306
  C  C28  1  0.933300  0.041000  0.527000  1.0  0.1595
  C  C29  1  0.849100  0.004700  0.644100  1.0  -0.0629
  C  C30  1  0.529300  0.539400  0.530400  1.0  0.1664
  C  C31  1  0.780200  0.219600  0.502900  1.0  0.1536
  C  C32  1  0.485500  0.506700  0.648900  1.0  -0.1037
  C  C33  1  0.539300  0.585500  0.702100  1.0  -0.1479
  C  C34  1  0.636800  0.051900  0.816400  1.0  0.7162
  C  C35  1  0.728400  0.085300  0.690400  1.0  -0.1292
  C  C36  1  0.640600  0.691400  0.635200  1.0  -0.1199
  C  C37  1  0.680200  0.713700  0.517000  1.0  0.1683
  C  C38  1  0.691000  0.193000  0.619900  1.0  -0.1139
  N  N39  1  0.100300  0.854000  0.542600  1.0  -0.4163
  N  N40  1  0.373200  0.357000  0.535500  1.0  -0.4219
  N  N41  1  0.131300  0.258100  0.042900  1.0  0.8651
  N  N42  1  0.899700  0.146000  0.457400  1.0  -0.4234
  N  N43  1  0.626800  0.643000  0.464500  1.0  -0.4273
  N  N44  1  0.868700  0.741900  0.957100  1.0  0.8661
  O  O45  1  0.460300  0.864400  0.145400  1.0  -0.6783
  O  O46  1  0.588500  0.551200  0.114100  1.0  -0.6867
  O  O47  1  0.337100  0.058000  0.124400  1.0  -0.7066
  O  O48  1  0.225500  0.218000  0.958700  1.0  -0.5879
  O  O49  1  0.187200  0.302500  0.102700  1.0  -0.5685
  O  O50  1  0.989500  0.253300  0.062500  1.0  -0.4674
  O  O51  1  0.462000  0.366800  0.127400  1.0  -0.7078
  O  O52  1  0.539700  0.135600  0.854600  1.0  -0.6781
  O  O53  1  0.411500  0.448800  0.885900  1.0  -0.6902
  O  O54  1  0.662900  0.942000  0.875600  1.0  -0.7079
  O  O55  1  0.774500  0.782000  0.041300  1.0  -0.5874
  O  O56  1  0.812800  0.697500  0.897300  1.0  -0.5687
  O  O57  1  0.010500  0.746700  0.937500  1.0  -0.4682
  O  O58  1  0.538000  0.633200  0.872600  1.0  -0.7086
