# generated using pymatgen
data_DyH6C12N3O8
_symmetry_space_group_name_H-M   'P 1'
_cell_length_a   24.40200000
_cell_length_b   9.34390000
_cell_length_c   10.34690000
_cell_angle_alpha   90.00000000
_cell_angle_beta   97.37100000
_cell_angle_gamma   90.00000000
_symmetry_Int_Tables_number   1
_chemical_formula_structural   DyH6C12N3O8
_chemical_formula_sum   'Dy4 H24 C48 N12 O32'
_cell_volume   2339.69923597
_cell_formula_units_Z   4
loop_
 _symmetry_equiv_pos_site_id
 _symmetry_equiv_pos_as_xyz
  1  'x, y, z'
loop_
 _atom_site_type_symbol
 _atom_site_label
 _atom_site_symmetry_multiplicity
 _atom_site_fract_x
 _atom_site_fract_y
 _atom_site_fract_z
 _atom_site_occupancy
 _atom_site_charge
  Dy  Dy1  1  0.000000  0.013100  0.750000  1.0  2.2819
  Dy  Dy2  1  0.500000  0.513100  0.750000  1.0  2.2819
  Dy  Dy3  1  0.000000  0.986900  0.250000  1.0  2.2778
  Dy  Dy4  1  0.500000  0.486900  0.250000  1.0  2.2778
  H  H5  1  0.161600  0.216700  0.914000  1.0  0.1551
  H  H6  1  0.151300  0.986400  0.234700  1.0  0.1643
  H  H7  1  0.244000  0.026600  0.294300  1.0  0.1236
  H  H8  1  0.661600  0.716700  0.914000  1.0  0.1551
  H  H9  1  0.651300  0.486400  0.234700  1.0  0.1643
  H  H10  1  0.744000  0.526600  0.294300  1.0  0.1236
  H  H11  1  0.838400  0.216700  0.586000  1.0  0.1548
  H  H12  1  0.848700  0.986400  0.265300  1.0  0.1644
  H  H13  1  0.756000  0.026600  0.205700  1.0  0.1232
  H  H14  1  0.338400  0.716700  0.586000  1.0  0.1548
  H  H15  1  0.348700  0.486400  0.265300  1.0  0.1644
  H  H16  1  0.256000  0.526600  0.205700  1.0  0.1232
  H  H17  1  0.838400  0.783300  0.086000  1.0  0.1568
  H  H18  1  0.848700  0.013600  0.765300  1.0  0.1642
  H  H19  1  0.756000  0.973400  0.705700  1.0  0.1231
  H  H20  1  0.338400  0.283300  0.086000  1.0  0.1568
  H  H21  1  0.348700  0.513600  0.765300  1.0  0.1642
  H  H22  1  0.256000  0.473400  0.705700  1.0  0.1231
  H  H23  1  0.161600  0.783300  0.414000  1.0  0.1567
  H  H24  1  0.151300  0.013600  0.734700  1.0  0.1641
  H  H25  1  0.244000  0.973400  0.794300  1.0  0.1235
  H  H26  1  0.661600  0.283300  0.414000  1.0  0.1567
  H  H27  1  0.651300  0.513600  0.734700  1.0  0.1641
  H  H28  1  0.744000  0.473400  0.794300  1.0  0.1235
  C  C29  1  0.177540  0.178400  0.992900  1.0  -0.0041
  C  C30  1  0.232750  0.204200  0.037400  1.0  0.2358
  C  C31  1  0.146560  0.096300  0.065800  1.0  -0.1062
  C  C32  1  0.086080  0.069800  0.020100  1.0  0.8132
  C  C33  1  0.171400  0.040600  0.181800  1.0  -0.1092
  C  C34  1  0.227000  0.067400  0.217500  1.0  0.2
  C  C35  1  0.677540  0.678400  0.992900  1.0  -0.0041
  C  C36  1  0.732750  0.704200  0.037400  1.0  0.2358
  C  C37  1  0.646560  0.596300  0.065800  1.0  -0.1062
  C  C38  1  0.586080  0.569800  0.020100  1.0  0.8132
  C  C39  1  0.671400  0.540600  0.181800  1.0  -0.1092
  C  C40  1  0.727000  0.567400  0.217500  1.0  0.2
  C  C41  1  0.822460  0.178400  0.507100  1.0  -0.0039
  C  C42  1  0.767250  0.204200  0.462600  1.0  0.2356
  C  C43  1  0.853440  0.096300  0.434200  1.0  -0.1042
  C  C44  1  0.913920  0.069800  0.479900  1.0  0.8141
  C  C45  1  0.828600  0.040600  0.318200  1.0  -0.1096
  C  C46  1  0.773000  0.067400  0.282500  1.0  0.1997
  C  C47  1  0.322460  0.678400  0.507100  1.0  -0.0039
  C  C48  1  0.267250  0.704200  0.462600  1.0  0.2356
  C  C49  1  0.353440  0.596300  0.434200  1.0  -0.1042
  C  C50  1  0.413920  0.569800  0.479900  1.0  0.8141
  C  C51  1  0.328600  0.540600  0.318200  1.0  -0.1096
  C  C52  1  0.273000  0.567400  0.282500  1.0  0.1997
  C  C53  1  0.822460  0.821600  0.007100  1.0  -0.0032
  C  C54  1  0.767250  0.795800  0.962600  1.0  0.235
  C  C55  1  0.853440  0.903700  0.934200  1.0  -0.1042
  C  C56  1  0.913920  0.930200  0.979900  1.0  0.8143
  C  C57  1  0.828600  0.959400  0.818200  1.0  -0.1097
  C  C58  1  0.773000  0.932600  0.782500  1.0  0.1995
  C  C59  1  0.322460  0.321600  0.007100  1.0  -0.0032
  C  C60  1  0.267250  0.295800  0.962600  1.0  0.235
  C  C61  1  0.353440  0.403700  0.934200  1.0  -0.1042
  C  C62  1  0.413920  0.430200  0.979900  1.0  0.8143
  C  C63  1  0.328600  0.459400  0.818200  1.0  -0.1097
  C  C64  1  0.273000  0.432600  0.782500  1.0  0.1995
  C  C65  1  0.177540  0.821600  0.492900  1.0  -0.0039
  C  C66  1  0.232750  0.795800  0.537400  1.0  0.2351
  C  C67  1  0.146560  0.903700  0.565800  1.0  -0.1061
  C  C68  1  0.086080  0.930200  0.520100  1.0  0.8135
  C  C69  1  0.171400  0.959400  0.681800  1.0  -0.109
  C  C70  1  0.227000  0.932600  0.717500  1.0  0.1999
  C  C71  1  0.677540  0.321600  0.492900  1.0  -0.0039
  C  C72  1  0.732750  0.295800  0.537400  1.0  0.2351
  C  C73  1  0.646560  0.403700  0.565800  1.0  -0.1061
  C  C74  1  0.586080  0.430200  0.520100  1.0  0.8135
  C  C75  1  0.671400  0.459400  0.681800  1.0  -0.109
  C  C76  1  0.727000  0.432600  0.717500  1.0  0.1999
  N  N77  1  0.257640  0.148300  0.148600  1.0  -0.3498
  N  N78  1  0.757640  0.648300  0.148600  1.0  -0.3498
  N  N79  1  0.742360  0.148300  0.351400  1.0  -0.3483
  N  N80  1  0.242360  0.648300  0.351400  1.0  -0.3483
  N  N81  1  0.742360  0.851700  0.851400  1.0  -0.3484
  N  N82  1  0.242360  0.351700  0.851400  1.0  -0.3484
  N  N83  1  0.257640  0.851700  0.648600  1.0  -0.3501
  N  N84  1  0.757640  0.351700  0.648600  1.0  -0.3501
  N  N85  1  0.000000  0.314300  0.750000  1.0  0.1738
  N  N86  1  0.500000  0.814300  0.750000  1.0  0.1738
  N  N87  1  0.000000  0.685700  0.250000  1.0  0.1746
  N  N88  1  0.500000  0.185700  0.250000  1.0  0.1746
  O  O89  1  0.069990  0.095600  0.904500  1.0  -0.6041
  O  O90  1  0.057260  0.023100  0.100100  1.0  -0.6917
  O  O91  1  0.030700  0.250900  0.683000  1.0  -0.5833
  O  O92  1  0.024900  0.447000  0.757000  1.0  -0.4717
  O  O93  1  0.569990  0.595600  0.904500  1.0  -0.6041
  O  O94  1  0.557260  0.523100  0.100100  1.0  -0.6917
  O  O95  1  0.530700  0.750900  0.683000  1.0  -0.5833
  O  O96  1  0.524900  0.947000  0.757000  1.0  -0.4717
  O  O97  1  0.930010  0.095600  0.595500  1.0  -0.6029
  O  O98  1  0.942740  0.023100  0.399900  1.0  -0.6925
  O  O99  1  0.969300  0.250900  0.817000  1.0  -0.5863
  O  O100  1  0.975100  0.447000  0.743000  1.0  -0.4733
  O  O101  1  0.430010  0.595600  0.595500  1.0  -0.6029
  O  O102  1  0.442740  0.523100  0.399900  1.0  -0.6925
  O  O103  1  0.469300  0.750900  0.817000  1.0  -0.5863
  O  O104  1  0.475100  0.947000  0.743000  1.0  -0.4733
  O  O105  1  0.930010  0.904400  0.095500  1.0  -0.6028
  O  O106  1  0.942740  0.976900  0.899900  1.0  -0.6919
  O  O107  1  0.969300  0.749100  0.317000  1.0  -0.5865
  O  O108  1  0.975100  0.553000  0.243000  1.0  -0.471
  O  O109  1  0.430010  0.404400  0.095500  1.0  -0.6028
  O  O110  1  0.442740  0.476900  0.899900  1.0  -0.6919
  O  O111  1  0.469300  0.249100  0.317000  1.0  -0.5865
  O  O112  1  0.475100  0.053000  0.243000  1.0  -0.471
  O  O113  1  0.069990  0.904400  0.404500  1.0  -0.6042
  O  O114  1  0.057260  0.976900  0.600100  1.0  -0.6918
  O  O115  1  0.030700  0.749100  0.183000  1.0  -0.5839
  O  O116  1  0.024900  0.553000  0.257000  1.0  -0.4699
  O  O117  1  0.569990  0.404400  0.404500  1.0  -0.6042
  O  O118  1  0.557260  0.476900  0.600100  1.0  -0.6918
  O  O119  1  0.530700  0.249100  0.183000  1.0  -0.5839
  O  O120  1  0.524900  0.053000  0.257000  1.0  -0.4699
