# generated using pymatgen
data_GdH9C18(NO2)3
_symmetry_space_group_name_H-M   'P 1'
_cell_length_a   9.90080000
_cell_length_b   11.65560000
_cell_length_c   13.43540000
_cell_angle_alpha   66.83200000
_cell_angle_beta   87.01900000
_cell_angle_gamma   76.37700000
_symmetry_Int_Tables_number   1
_chemical_formula_structural   GdH9C18(NO2)3
_chemical_formula_sum   'Gd2 H18 C36 N6 O12'
_cell_volume   1383.87012516
_cell_formula_units_Z   2
loop_
 _symmetry_equiv_pos_site_id
 _symmetry_equiv_pos_as_xyz
  1  'x, y, z'
loop_
 _atom_site_type_symbol
 _atom_site_label
 _atom_site_symmetry_multiplicity
 _atom_site_fract_x
 _atom_site_fract_y
 _atom_site_fract_z
 _atom_site_occupancy
 _atom_site_charge
  Gd  Gd1  1  0.763720  0.973690  0.995160  1.0  2.2326
  Gd  Gd2  1  0.236280  0.026310  0.004840  1.0  2.2322
  H  H3  1  0.985500  0.372600  0.556600  1.0  0.0707
  H  H4  1  0.945200  0.266600  0.734000  1.0  0.1081
  H  H5  1  0.562400  0.493400  0.680200  1.0  0.1192
  H  H6  1  0.695600  0.674100  0.343200  1.0  0.1124
  H  H7  1  0.315600  0.900500  0.294300  1.0  0.1184
  H  H8  1  0.281300  0.800200  0.474100  1.0  0.073
  H  H9  1  0.688200  0.906400  0.443700  1.0  0.0736
  H  H10  1  0.762600  0.925500  0.276000  1.0  0.1159
  H  H11  1  0.092800  0.030100  0.338900  1.0  0.1132
  H  H12  1  0.014500  0.627400  0.443400  1.0  0.0713
  H  H13  1  0.054800  0.733400  0.266000  1.0  0.1072
  H  H14  1  0.437600  0.506600  0.319800  1.0  0.1189
  H  H15  1  0.304400  0.325900  0.656800  1.0  0.1125
  H  H16  1  0.684400  0.099500  0.705700  1.0  0.118
  H  H17  1  0.718700  0.199800  0.525900  1.0  0.0731
  H  H18  1  0.311800  0.093600  0.556300  1.0  0.0741
  H  H19  1  0.237400  0.074500  0.724000  1.0  0.1165
  H  H20  1  0.907200  0.969900  0.661100  1.0  0.114
  C  C21  1  0.710100  0.289600  0.841500  1.0  0.7192
  C  C22  1  0.900200  0.398900  0.582900  1.0  0.1796
  C  C23  1  0.875600  0.332700  0.688500  1.0  -0.1647
  C  C24  1  0.749300  0.364300  0.726300  1.0  -0.0557
  C  C25  1  0.649700  0.467500  0.656300  1.0  -0.1181
  C  C26  1  0.682600  0.528700  0.553600  1.0  0.1993
  C  C27  1  0.580200  0.640700  0.475200  1.0  0.1937
  C  C28  1  0.609200  0.700600  0.367800  1.0  -0.0749
  C  C29  1  0.510700  0.798600  0.298100  1.0  -0.093
  C  C30  1  0.386000  0.834900  0.339200  1.0  -0.1573
  C  C31  1  0.366200  0.773600  0.447300  1.0  0.1718
  C  C32  1  0.535100  0.867300  0.179200  1.0  0.8281
  C  C33  1  0.772200  0.929700  0.423300  1.0  0.1663
  C  C34  1  0.814100  0.943800  0.321400  1.0  -0.1268
  C  C35  1  0.935400  0.986100  0.286800  1.0  -0.1063
  C  C36  1  0.009400  0.005300  0.358400  1.0  -0.0922
  C  C37  1  0.960300  0.987800  0.462100  1.0  0.19
  C  C38  1  0.988400  0.003300  0.177400  1.0  0.7727
  C  C39  1  0.289900  0.710400  0.158500  1.0  0.7188
  C  C40  1  0.099800  0.601100  0.417100  1.0  0.1798
  C  C41  1  0.124400  0.667300  0.311500  1.0  -0.1651
  C  C42  1  0.250700  0.635700  0.273700  1.0  -0.0793
  C  C43  1  0.350300  0.532500  0.343700  1.0  -0.1182
  C  C44  1  0.317400  0.471300  0.446400  1.0  0.199
  C  C45  1  0.419800  0.359300  0.524800  1.0  0.1945
  C  C46  1  0.390800  0.299400  0.632200  1.0  -0.0773
  C  C47  1  0.489300  0.201400  0.701900  1.0  -0.0933
  C  C48  1  0.614000  0.165100  0.660800  1.0  -0.1554
  C  C49  1  0.633800  0.226400  0.552700  1.0  0.1714
  C  C50  1  0.464900  0.132700  0.820800  1.0  0.8288
  C  C51  1  0.227800  0.070300  0.576700  1.0  0.1665
  C  C52  1  0.185900  0.056200  0.678600  1.0  -0.126
  C  C53  1  0.064600  0.013900  0.713200  1.0  -0.1076
  C  C54  1  0.990600  0.994700  0.641600  1.0  -0.0921
  C  C55  1  0.039700  0.012200  0.537900  1.0  0.1913
  C  C56  1  0.011600  0.996700  0.822600  1.0  0.7709
  N  N57  1  0.461500  0.678400  0.516000  1.0  -0.3761
  N  N58  1  0.808000  0.499100  0.515800  1.0  -0.3964
  N  N59  1  0.843400  0.947000  0.495100  1.0  -0.3993
  N  N60  1  0.538500  0.321600  0.484000  1.0  -0.3748
  N  N61  1  0.192000  0.500900  0.484200  1.0  -0.3946
  N  N62  1  0.156600  0.053000  0.504900  1.0  -0.3983
  O  O63  1  0.603800  0.335000  0.878100  1.0  -0.5686
  O  O64  1  0.795000  0.186100  0.892600  1.0  -0.7556
  O  O65  1  0.432800  0.941000  0.121300  1.0  -0.7881
  O  O66  1  0.657500  0.850300  0.150200  1.0  -0.7515
  O  O67  1  0.105600  0.027700  0.158000  1.0  -0.6937
  O  O68  1  0.910200  0.993600  0.111100  1.0  -0.8207
  O  O69  1  0.396200  0.665000  0.121900  1.0  -0.5697
  O  O70  1  0.205000  0.813900  0.107400  1.0  -0.7558
  O  O71  1  0.567200  0.059000  0.878700  1.0  -0.7938
  O  O72  1  0.342500  0.149700  0.849800  1.0  -0.7557
  O  O73  1  0.894400  0.972300  0.842000  1.0  -0.6988
  O  O74  1  0.089800  0.006400  0.888900  1.0  -0.8215
