# generated using pymatgen
data_EuH9C18(NO2)3
_symmetry_space_group_name_H-M   'P 1'
_cell_length_a   9.95440000
_cell_length_b   11.71550000
_cell_length_c   13.52150000
_cell_angle_alpha   66.89700000
_cell_angle_beta   87.03300000
_cell_angle_gamma   76.40200000
_symmetry_Int_Tables_number   1
_chemical_formula_structural   EuH9C18(NO2)3
_chemical_formula_sum   'Eu2 H18 C36 N6 O12'
_cell_volume   1408.31964600
_cell_formula_units_Z   2
loop_
 _symmetry_equiv_pos_site_id
 _symmetry_equiv_pos_as_xyz
  1  'x, y, z'
loop_
 _atom_site_type_symbol
 _atom_site_label
 _atom_site_symmetry_multiplicity
 _atom_site_fract_x
 _atom_site_fract_y
 _atom_site_fract_z
 _atom_site_occupancy
 _atom_site_charge
  Eu  Eu1  1  0.736200  0.026570  0.004720  1.0  2.1992
  Eu  Eu2  1  0.263800  0.973430  0.995280  1.0  2.199
  H  H3  1  0.487000  0.379100  0.559800  1.0  0.0736
  H  H4  1  0.444800  0.266400  0.736200  1.0  0.1193
  H  H5  1  0.061500  0.491700  0.679800  1.0  0.1164
  H  H6  1  0.196000  0.674400  0.342400  1.0  0.1145
  H  H7  1  0.813400  0.897700  0.295200  1.0  0.1216
  H  H8  1  0.782800  0.799600  0.474900  1.0  0.0762
  H  H9  1  0.808500  0.095500  0.556700  1.0  0.0732
  H  H10  1  0.737600  0.070000  0.725900  1.0  0.1184
  H  H11  1  0.408100  0.966400  0.660900  1.0  0.118
  H  H12  1  0.513000  0.620900  0.440200  1.0  0.0733
  H  H13  1  0.555200  0.733600  0.263800  1.0  0.1182
  H  H14  1  0.938500  0.508300  0.320200  1.0  0.1169
  H  H15  1  0.804000  0.325600  0.657600  1.0  0.1148
  H  H16  1  0.186600  0.102300  0.704800  1.0  0.1211
  H  H17  1  0.217200  0.200400  0.525100  1.0  0.0761
  H  H18  1  0.191500  0.904500  0.443300  1.0  0.0741
  H  H19  1  0.262400  0.930000  0.274100  1.0  0.1175
  H  H20  1  0.591900  0.033600  0.339100  1.0  0.1193
  C  C21  1  0.211000  0.291000  0.841200  1.0  0.7472
  C  C22  1  0.400100  0.402100  0.584700  1.0  0.185
  C  C23  1  0.376100  0.332600  0.691000  1.0  -0.1291
  C  C24  1  0.246800  0.365200  0.727200  1.0  -0.0801
  C  C25  1  0.149300  0.467000  0.657000  1.0  -0.0806
  C  C26  1  0.184200  0.531100  0.553400  1.0  0.1451
  C  C27  1  0.082000  0.640500  0.475700  1.0  0.1825
  C  C28  1  0.110400  0.700600  0.367600  1.0  -0.0551
  C  C29  1  0.011000  0.798400  0.298900  1.0  -0.1127
  C  C30  1  0.884400  0.833900  0.339800  1.0  -0.1521
  C  C31  1  0.866400  0.772600  0.447700  1.0  0.1813
  C  C32  1  0.034900  0.866900  0.182100  1.0  0.7905
  C  C33  1  0.511800  0.996600  0.823600  1.0  0.7819
  C  C34  1  0.725800  0.070700  0.577300  1.0  0.165
  C  C35  1  0.685000  0.054500  0.679700  1.0  -0.1269
  C  C36  1  0.564700  0.014900  0.712300  1.0  -0.1188
  C  C37  1  0.489900  0.993000  0.640900  1.0  -0.0637
  C  C38  1  0.538300  0.011200  0.539400  1.0  0.1945
  C  C39  1  0.789000  0.709000  0.158800  1.0  0.7449
  C  C40  1  0.599900  0.597900  0.415300  1.0  0.184
  C  C41  1  0.623900  0.667400  0.309000  1.0  -0.1312
  C  C42  1  0.753200  0.634800  0.272800  1.0  -0.0857
  C  C43  1  0.850700  0.533000  0.343000  1.0  -0.0826
  C  C44  1  0.815800  0.468900  0.446600  1.0  0.1469
  C  C45  1  0.918000  0.359500  0.524300  1.0  0.1831
  C  C46  1  0.889600  0.299400  0.632400  1.0  -0.0535
  C  C47  1  0.989000  0.201600  0.701100  1.0  -0.1127
  C  C48  1  0.115600  0.166100  0.660200  1.0  -0.1522
  C  C49  1  0.133600  0.227400  0.552300  1.0  0.1824
  C  C50  1  0.965100  0.133100  0.817900  1.0  0.7956
  C  C51  1  0.488200  0.003400  0.176400  1.0  0.7795
  C  C52  1  0.274200  0.929300  0.422700  1.0  0.1646
  C  C53  1  0.315000  0.945500  0.320300  1.0  -0.1271
  C  C54  1  0.435300  0.985100  0.287700  1.0  -0.1184
  C  C55  1  0.510100  0.007000  0.359100  1.0  -0.0593
  C  C56  1  0.461700  0.988800  0.460600  1.0  0.1962
  N  N57  1  0.307900  0.499200  0.515500  1.0  -0.4122
  N  N58  1  0.959900  0.678100  0.515100  1.0  -0.39
  N  N59  1  0.654700  0.053200  0.505600  1.0  -0.435
  N  N60  1  0.692100  0.500800  0.484500  1.0  -0.4155
  N  N61  1  0.040100  0.321900  0.484900  1.0  -0.3903
  N  N62  1  0.345300  0.946800  0.494400  1.0  -0.4336
  O  O63  1  0.295000  0.186400  0.893100  1.0  -0.7643
  O  O64  1  0.101800  0.336000  0.876600  1.0  -0.5368
  O  O65  1  0.156600  0.849700  0.151500  1.0  -0.7392
  O  O66  1  0.932000  0.941300  0.121600  1.0  -0.7947
  O  O67  1  0.395700  0.972700  0.841500  1.0  -0.6785
  O  O68  1  0.587300  0.007600  0.888200  1.0  -0.8326
  O  O69  1  0.705000  0.813600  0.106900  1.0  -0.765
  O  O70  1  0.898200  0.664000  0.123400  1.0  -0.5368
  O  O71  1  0.843400  0.150300  0.848500  1.0  -0.7411
  O  O72  1  0.068000  0.058700  0.878400  1.0  -0.7951
  O  O73  1  0.604300  0.027300  0.158500  1.0  -0.675
  O  O74  1  0.412700  0.992400  0.111800  1.0  -0.8333
