# generated using pymatgen
data_TbH9C18(NO2)3
_symmetry_space_group_name_H-M   'P 1'
_cell_length_a   9.96400000
_cell_length_b   11.57000000
_cell_length_c   13.32000000
_cell_angle_alpha   67.70000000
_cell_angle_beta   87.18000000
_cell_angle_gamma   76.68000000
_symmetry_Int_Tables_number   1
_chemical_formula_structural   TbH9C18(NO2)3
_chemical_formula_sum   'Tb2 H18 C36 N6 O12'
_cell_volume   1381.26347312
_cell_formula_units_Z   2
loop_
 _symmetry_equiv_pos_site_id
 _symmetry_equiv_pos_as_xyz
  1  'x, y, z'
loop_
 _atom_site_type_symbol
 _atom_site_label
 _atom_site_symmetry_multiplicity
 _atom_site_fract_x
 _atom_site_fract_y
 _atom_site_fract_z
 _atom_site_occupancy
 _atom_site_charge
  Tb  Tb1  1  0.763370  0.474070  0.994980  1.0  2.284
  Tb  Tb2  1  0.236630  0.525930  0.005020  1.0  2.2839
  H  H3  1  0.012200  0.124400  0.443200  1.0  0.0803
  H  H4  1  0.056100  0.235400  0.265700  1.0  0.1147
  H  H5  1  0.437500  0.009200  0.320300  1.0  0.1175
  H  H6  1  0.304700  0.826300  0.659400  1.0  0.1113
  H  H7  1  0.685100  0.599600  0.705600  1.0  0.1243
  H  H8  1  0.715600  0.699000  0.523000  1.0  0.0766
  H  H9  1  0.091100  0.531400  0.339300  1.0  0.108
  H  H10  1  0.762100  0.429300  0.272500  1.0  0.1157
  H  H11  1  0.690000  0.405600  0.444800  1.0  0.0731
  H  H12  1  0.987800  0.875600  0.556800  1.0  0.0801
  H  H13  1  0.943900  0.764600  0.734300  1.0  0.1153
  H  H14  1  0.562500  0.990800  0.679700  1.0  0.1173
  H  H15  1  0.695300  0.173700  0.340600  1.0  0.1109
  H  H16  1  0.314900  0.400400  0.294400  1.0  0.1241
  H  H17  1  0.284400  0.301000  0.477000  1.0  0.0771
  H  H18  1  0.908900  0.468600  0.660700  1.0  0.1068
  H  H19  1  0.237900  0.570700  0.727500  1.0  0.1163
  H  H20  1  0.310000  0.594400  0.555200  1.0  0.0751
  C  C21  1  0.288100  0.209600  0.158900  1.0  0.7737
  C  C22  1  0.098200  0.100400  0.417300  1.0  0.1631
  C  C23  1  0.124000  0.168500  0.310900  1.0  -0.1464
  C  C24  1  0.252300  0.135200  0.273200  1.0  -0.0893
  C  C25  1  0.349600  0.033200  0.343400  1.0  -0.0944
  C  C26  1  0.314300  0.968500  0.446900  1.0  0.1368
  C  C27  1  0.416100  0.859800  0.524200  1.0  0.1623
  C  C28  1  0.389500  0.799800  0.633100  1.0  -0.0382
  C  C29  1  0.488500  0.701500  0.701500  1.0  -0.1236
  C  C30  1  0.614900  0.664100  0.660900  1.0  -0.1309
  C  C31  1  0.632800  0.726100  0.551700  1.0  0.1681
  C  C32  1  0.465700  0.631700  0.820100  1.0  0.7745
  C  C33  1  0.986400  0.503100  0.175800  1.0  0.8003
  C  C34  1  0.960800  0.489900  0.459300  1.0  0.1687
  C  C35  1  0.008300  0.506300  0.358700  1.0  -0.0468
  C  C36  1  0.934500  0.485900  0.286100  1.0  -0.123
  C  C37  1  0.814500  0.445800  0.319200  1.0  -0.1491
  C  C38  1  0.772700  0.430400  0.423900  1.0  0.1746
  C  C39  1  0.711900  0.790400  0.841100  1.0  0.7766
  C  C40  1  0.901800  0.899600  0.582700  1.0  0.1623
  C  C41  1  0.876000  0.831500  0.689100  1.0  -0.147
  C  C42  1  0.747700  0.864800  0.726800  1.0  -0.0838
  C  C43  1  0.650400  0.966800  0.656600  1.0  -0.0891
  C  C44  1  0.685700  0.031500  0.553100  1.0  0.1358
  C  C45  1  0.583900  0.140200  0.475800  1.0  0.1592
  C  C46  1  0.610500  0.200200  0.366900  1.0  -0.0411
  C  C47  1  0.511500  0.298500  0.298500  1.0  -0.1233
  C  C48  1  0.385100  0.335900  0.339100  1.0  -0.1312
  C  C49  1  0.367200  0.273900  0.448300  1.0  0.1658
  C  C50  1  0.534300  0.368300  0.179900  1.0  0.7625
  C  C51  1  0.013600  0.496900  0.824200  1.0  0.8013
  C  C52  1  0.039200  0.510100  0.540700  1.0  0.1698
  C  C53  1  0.991700  0.493700  0.641300  1.0  -0.0474
  C  C54  1  0.065500  0.514100  0.713900  1.0  -0.1248
  C  C55  1  0.185500  0.554200  0.680800  1.0  -0.1423
  C  C56  1  0.227300  0.569600  0.576100  1.0  0.1736
  N  N57  1  0.191200  0.001600  0.485000  1.0  -0.4167
  N  N58  1  0.536900  0.823600  0.484300  1.0  -0.4008
  N  N59  1  0.843300  0.448600  0.494500  1.0  -0.4205
  N  N60  1  0.808800  0.998400  0.515000  1.0  -0.417
  N  N61  1  0.463100  0.176400  0.515700  1.0  -0.4031
  N  N62  1  0.156700  0.551400  0.505500  1.0  -0.4216
  O  O63  1  0.204200  0.314600  0.106600  1.0  -0.7713
  O  O64  1  0.396500  0.164300  0.123300  1.0  -0.5588
  O  O65  1  0.344000  0.647700  0.850500  1.0  -0.7416
  O  O66  1  0.569300  0.558100  0.878900  1.0  -0.7988
  O  O67  1  0.104800  0.525700  0.157000  1.0  -0.6785
  O  O68  1  0.909900  0.494500  0.109600  1.0  -0.7969
  O  O69  1  0.795800  0.685400  0.893400  1.0  -0.7658
  O  O70  1  0.603500  0.835700  0.876700  1.0  -0.5612
  O  O71  1  0.656000  0.352300  0.149500  1.0  -0.7403
  O  O72  1  0.430700  0.441900  0.121100  1.0  -0.7989
  O  O73  1  0.895200  0.474300  0.843000  1.0  -0.6797
  O  O74  1  0.090100  0.505500  0.890400  1.0  -0.798
