# generated using pymatgen
data_Cd16Co3H60C156(NO4)12
_symmetry_space_group_name_H-M   'P 1'
_cell_length_a   22.26000000
_cell_length_b   22.26000000
_cell_length_c   22.26000000
_cell_angle_alpha   90.00000000
_cell_angle_beta   90.00000000
_cell_angle_gamma   90.00000000
_symmetry_Int_Tables_number   1
_chemical_formula_structural   Cd16Co3H60C156(NO4)12
_chemical_formula_sum   'Cd16 Co3 H60 C156 N12 O48'
_cell_volume   11029.99917600
_cell_formula_units_Z   1
loop_
 _symmetry_equiv_pos_site_id
 _symmetry_equiv_pos_as_xyz
  1  'x, y, z'
loop_
 _atom_site_type_symbol
 _atom_site_label
 _atom_site_symmetry_multiplicity
 _atom_site_fract_x
 _atom_site_fract_y
 _atom_site_fract_z
 _atom_site_occupancy
 _atom_site_charge
  Cd  Cd1  1  0.237600  0.237600  0.762400  1.0  0.8576
  Cd  Cd2  1  0.208200  0.208200  0.791800  1.0  0.9751
  Cd  Cd3  1  0.762400  0.762400  0.762400  1.0  0.8598
  Cd  Cd4  1  0.791800  0.791800  0.791800  1.0  0.974
  Cd  Cd5  1  0.762400  0.237600  0.237600  1.0  0.8572
  Cd  Cd6  1  0.791800  0.208200  0.208200  1.0  0.974
  Cd  Cd7  1  0.237600  0.762400  0.237600  1.0  0.8552
  Cd  Cd8  1  0.208200  0.791800  0.208200  1.0  0.9769
  Cd  Cd9  1  0.237600  0.237600  0.237600  1.0  0.8553
  Cd  Cd10  1  0.208200  0.208200  0.208200  1.0  0.976
  Cd  Cd11  1  0.762400  0.762400  0.237600  1.0  0.8572
  Cd  Cd12  1  0.791800  0.791800  0.208200  1.0  0.9747
  Cd  Cd13  1  0.237600  0.762400  0.762400  1.0  0.8572
  Cd  Cd14  1  0.208200  0.791800  0.791800  1.0  0.9759
  Cd  Cd15  1  0.762400  0.237600  0.762400  1.0  0.8594
  Cd  Cd16  1  0.791800  0.208200  0.791800  1.0  0.9735
  Co  Co17  1  0.500000  0.000000  0.500000  1.0  0.7545
  Co  Co18  1  0.500000  0.500000  0.000000  1.0  0.7545
  Co  Co19  1  0.000000  0.500000  0.500000  1.0  0.7545
  H  H20  1  0.275000  0.000000  0.555300  1.0  0.1045
  H  H21  1  0.725000  0.000000  0.555300  1.0  0.1044
  H  H22  1  0.725000  0.000000  0.444700  1.0  0.1045
  H  H23  1  0.275000  0.000000  0.444700  1.0  0.1052
  H  H24  1  0.555300  0.275000  0.000000  1.0  0.1054
  H  H25  1  0.555300  0.725000  0.000000  1.0  0.1054
  H  H26  1  0.444700  0.725000  0.000000  1.0  0.1053
  H  H27  1  0.444700  0.275000  0.000000  1.0  0.1048
  H  H28  1  0.000000  0.555300  0.275000  1.0  0.105
  H  H29  1  0.000000  0.555300  0.725000  1.0  0.1044
  H  H30  1  0.000000  0.444700  0.725000  1.0  0.1047
  H  H31  1  0.000000  0.444700  0.275000  1.0  0.1051
  H  H32  1  0.000000  0.275000  0.444700  1.0  0.105
  H  H33  1  0.000000  0.725000  0.444700  1.0  0.1054
  H  H34  1  0.000000  0.725000  0.555300  1.0  0.1046
  H  H35  1  0.000000  0.275000  0.555300  1.0  0.1047
  H  H36  1  0.275000  0.555300  0.000000  1.0  0.1051
  H  H37  1  0.725000  0.555300  0.000000  1.0  0.1046
  H  H38  1  0.725000  0.444700  0.000000  1.0  0.1049
  H  H39  1  0.275000  0.444700  0.000000  1.0  0.1055
  H  H40  1  0.555300  0.000000  0.725000  1.0  0.1049
  H  H41  1  0.555300  0.000000  0.275000  1.0  0.1054
  H  H42  1  0.444700  0.000000  0.275000  1.0  0.1051
  H  H43  1  0.444700  0.000000  0.725000  1.0  0.1041
  H  H44  1  0.226000  0.000000  0.774000  1.0  0.1116
  H  H45  1  0.774000  0.000000  0.774000  1.0  0.1117
  H  H46  1  0.774000  0.000000  0.226000  1.0  0.1119
  H  H47  1  0.226000  0.000000  0.226000  1.0  0.1117
  H  H48  1  0.774000  0.226000  0.000000  1.0  0.1123
  H  H49  1  0.774000  0.774000  0.000000  1.0  0.1124
  H  H50  1  0.226000  0.774000  0.000000  1.0  0.1122
  H  H51  1  0.226000  0.226000  0.000000  1.0  0.1122
  H  H52  1  0.000000  0.774000  0.226000  1.0  0.1126
  H  H53  1  0.000000  0.774000  0.774000  1.0  0.1127
  H  H54  1  0.000000  0.226000  0.774000  1.0  0.1127
  H  H55  1  0.000000  0.226000  0.226000  1.0  0.1127
  H  H56  1  0.337000  0.090700  0.663000  1.0  0.1075
  H  H57  1  0.663000  0.909300  0.663000  1.0  0.1076
  H  H58  1  0.663000  0.090700  0.337000  1.0  0.1076
  H  H59  1  0.337000  0.909300  0.337000  1.0  0.1073
  H  H60  1  0.663000  0.337000  0.090700  1.0  0.109
  H  H61  1  0.663000  0.663000  0.909300  1.0  0.1088
  H  H62  1  0.337000  0.663000  0.090700  1.0  0.1087
  H  H63  1  0.337000  0.337000  0.909300  1.0  0.109
  H  H64  1  0.090700  0.663000  0.337000  1.0  0.1071
  H  H65  1  0.909300  0.663000  0.663000  1.0  0.108
  H  H66  1  0.090700  0.337000  0.663000  1.0  0.1078
  H  H67  1  0.909300  0.337000  0.337000  1.0  0.1076
  H  H68  1  0.090700  0.337000  0.337000  1.0  0.1071
  H  H69  1  0.909300  0.663000  0.337000  1.0  0.1079
  H  H70  1  0.090700  0.663000  0.663000  1.0  0.1075
  H  H71  1  0.909300  0.337000  0.663000  1.0  0.1082
  H  H72  1  0.337000  0.663000  0.909300  1.0  0.109
  H  H73  1  0.663000  0.663000  0.090700  1.0  0.1089
  H  H74  1  0.663000  0.337000  0.909300  1.0  0.109
  H  H75  1  0.337000  0.337000  0.090700  1.0  0.1087
  H  H76  1  0.663000  0.090700  0.663000  1.0  0.1078
  H  H77  1  0.663000  0.909300  0.337000  1.0  0.1074
  H  H78  1  0.337000  0.090700  0.337000  1.0  0.1072
  H  H79  1  0.337000  0.909300  0.663000  1.0  0.1077
  C  C80  1  0.309600  0.000000  0.530300  1.0  -0.1802
  C  C81  1  0.370400  0.000000  0.550400  1.0  0.1477
  C  C82  1  0.690400  0.000000  0.530300  1.0  -0.1791
  C  C83  1  0.629600  0.000000  0.550400  1.0  0.1473
  C  C84  1  0.690400  0.000000  0.469700  1.0  -0.1788
  C  C85  1  0.629600  0.000000  0.449600  1.0  0.1455
  C  C86  1  0.309600  0.000000  0.469700  1.0  -0.1791
  C  C87  1  0.370400  0.000000  0.449600  1.0  0.1459
  C  C88  1  0.530300  0.309600  0.000000  1.0  -0.1816
  C  C89  1  0.550400  0.370400  0.000000  1.0  0.1456
  C  C90  1  0.530300  0.690400  0.000000  1.0  -0.1829
  C  C91  1  0.550400  0.629600  0.000000  1.0  0.1453
  C  C92  1  0.469700  0.690400  0.000000  1.0  -0.1831
  C  C93  1  0.449600  0.629600  0.000000  1.0  0.1456
  C  C94  1  0.469700  0.309600  0.000000  1.0  -0.1815
  C  C95  1  0.449600  0.370400  0.000000  1.0  0.1456
  C  C96  1  0.000000  0.530300  0.309600  1.0  -0.1802
  C  C97  1  0.000000  0.550400  0.370400  1.0  0.1486
  C  C98  1  0.000000  0.530300  0.690400  1.0  -0.1799
  C  C99  1  0.000000  0.550400  0.629600  1.0  0.1487
  C  C100  1  0.000000  0.469700  0.690400  1.0  -0.1801
  C  C101  1  0.000000  0.449600  0.629600  1.0  0.148
  C  C102  1  0.000000  0.469700  0.309600  1.0  -0.1805
  C  C103  1  0.000000  0.449600  0.370400  1.0  0.1478
  C  C104  1  0.000000  0.309600  0.469700  1.0  -0.179
  C  C105  1  0.000000  0.370400  0.449600  1.0  0.1458
  C  C106  1  0.000000  0.690400  0.469700  1.0  -0.1805
  C  C107  1  0.000000  0.629600  0.449600  1.0  0.1455
  C  C108  1  0.000000  0.690400  0.530300  1.0  -0.1804
  C  C109  1  0.000000  0.629600  0.550400  1.0  0.1467
  C  C110  1  0.000000  0.309600  0.530300  1.0  -0.1786
  C  C111  1  0.000000  0.370400  0.550400  1.0  0.147
  C  C112  1  0.309600  0.530300  0.000000  1.0  -0.18
  C  C113  1  0.370400  0.550400  0.000000  1.0  0.1477
  C  C114  1  0.690400  0.530300  0.000000  1.0  -0.1794
  C  C115  1  0.629600  0.550400  0.000000  1.0  0.1472
  C  C116  1  0.690400  0.469700  0.000000  1.0  -0.1796
  C  C117  1  0.629600  0.449600  0.000000  1.0  0.1463
  C  C118  1  0.309600  0.469700  0.000000  1.0  -0.1802
  C  C119  1  0.370400  0.449600  0.000000  1.0  0.1464
  C  C120  1  0.530300  0.000000  0.690400  1.0  -0.1817
  C  C121  1  0.550400  0.000000  0.629600  1.0  0.1471
  C  C122  1  0.530300  0.000000  0.309600  1.0  -0.1821
  C  C123  1  0.550400  0.000000  0.370400  1.0  0.1466
  C  C124  1  0.469700  0.000000  0.309600  1.0  -0.1823
  C  C125  1  0.449600  0.000000  0.370400  1.0  0.1468
  C  C126  1  0.469700  0.000000  0.690400  1.0  -0.1825
  C  C127  1  0.449600  0.000000  0.629600  1.0  0.1472
  C  C128  1  0.256200  0.000000  0.743800  1.0  -0.0351
  C  C129  1  0.390800  0.000000  0.609200  1.0  -0.0828
  C  C130  1  0.343400  0.000000  0.656600  1.0  0.1038
  C  C131  1  0.743800  0.000000  0.743800  1.0  -0.0353
  C  C132  1  0.609200  0.000000  0.609200  1.0  -0.0839
  C  C133  1  0.656600  0.000000  0.656600  1.0  0.1039
  C  C134  1  0.743800  0.000000  0.256200  1.0  -0.0351
  C  C135  1  0.609200  0.000000  0.390800  1.0  -0.085
  C  C136  1  0.656600  0.000000  0.343400  1.0  0.1045
  C  C137  1  0.256200  0.000000  0.256200  1.0  -0.0352
  C  C138  1  0.390800  0.000000  0.390800  1.0  -0.0836
  C  C139  1  0.343400  0.000000  0.343400  1.0  0.1046
  C  C140  1  0.743800  0.256200  0.000000  1.0  -0.0343
  C  C141  1  0.609200  0.390800  0.000000  1.0  -0.0843
  C  C142  1  0.656600  0.343400  0.000000  1.0  0.1042
  C  C143  1  0.743800  0.743800  0.000000  1.0  -0.0364
  C  C144  1  0.609200  0.609200  0.000000  1.0  -0.085
  C  C145  1  0.656600  0.656600  0.000000  1.0  0.1039
  C  C146  1  0.256200  0.743800  0.000000  1.0  -0.0363
  C  C147  1  0.390800  0.609200  0.000000  1.0  -0.0835
  C  C148  1  0.343400  0.656600  0.000000  1.0  0.1039
  C  C149  1  0.256200  0.256200  0.000000  1.0  -0.0347
  C  C150  1  0.390800  0.390800  0.000000  1.0  -0.0831
  C  C151  1  0.343400  0.343400  0.000000  1.0  0.104
  C  C152  1  0.000000  0.743800  0.256200  1.0  -0.0393
  C  C153  1  0.000000  0.609200  0.390800  1.0  -0.0844
  C  C154  1  0.000000  0.656600  0.343400  1.0  0.1049
  C  C155  1  0.000000  0.743800  0.743800  1.0  -0.0395
  C  C156  1  0.000000  0.609200  0.609200  1.0  -0.0839
  C  C157  1  0.000000  0.656600  0.656600  1.0  0.1041
  C  C158  1  0.000000  0.256200  0.743800  1.0  -0.0374
  C  C159  1  0.000000  0.390800  0.609200  1.0  -0.0832
  C  C160  1  0.000000  0.343400  0.656600  1.0  0.1043
  C  C161  1  0.000000  0.256200  0.256200  1.0  -0.0372
  C  C162  1  0.000000  0.390800  0.390800  1.0  -0.0845
  C  C163  1  0.000000  0.343400  0.343400  1.0  0.1051
  C  C164  1  0.258300  0.111300  0.741700  1.0  0.6219
  C  C165  1  0.321900  0.053800  0.678100  1.0  -0.1436
  C  C166  1  0.278200  0.053300  0.721800  1.0  -0.0631
  C  C167  1  0.741700  0.888700  0.741700  1.0  0.6225
  C  C168  1  0.678100  0.946200  0.678100  1.0  -0.1444
  C  C169  1  0.721800  0.946700  0.721800  1.0  -0.0635
  C  C170  1  0.741700  0.111300  0.258300  1.0  0.6216
  C  C171  1  0.678100  0.053800  0.321900  1.0  -0.1438
  C  C172  1  0.721800  0.053300  0.278200  1.0  -0.0634
  C  C173  1  0.258300  0.888700  0.258300  1.0  0.6219
  C  C174  1  0.321900  0.946200  0.321900  1.0  -0.1436
  C  C175  1  0.278200  0.946700  0.278200  1.0  -0.0647
  C  C176  1  0.741700  0.258300  0.111300  1.0  0.622
  C  C177  1  0.678100  0.321900  0.053800  1.0  -0.1427
  C  C178  1  0.721800  0.278200  0.053300  1.0  -0.0649
  C  C179  1  0.741700  0.741700  0.888700  1.0  0.6215
  C  C180  1  0.678100  0.678100  0.946200  1.0  -0.1431
  C  C181  1  0.721800  0.721800  0.946700  1.0  -0.0649
  C  C182  1  0.258300  0.741700  0.111300  1.0  0.6216
  C  C183  1  0.321900  0.678100  0.053800  1.0  -0.1423
  C  C184  1  0.278200  0.721800  0.053300  1.0  -0.0652
  C  C185  1  0.258300  0.258300  0.888700  1.0  0.6214
  C  C186  1  0.321900  0.321900  0.946200  1.0  -0.143
  C  C187  1  0.278200  0.278200  0.946700  1.0  -0.0658
  C  C188  1  0.111300  0.741700  0.258300  1.0  0.6206
  C  C189  1  0.053800  0.678100  0.321900  1.0  -0.1424
  C  C190  1  0.053300  0.721800  0.278200  1.0  -0.064
  C  C191  1  0.888700  0.741700  0.741700  1.0  0.6203
  C  C192  1  0.946200  0.678100  0.678100  1.0  -0.1446
  C  C193  1  0.946700  0.721800  0.721800  1.0  -0.0643
  C  C194  1  0.111300  0.258300  0.741700  1.0  0.6211
  C  C195  1  0.053800  0.321900  0.678100  1.0  -0.1427
  C  C196  1  0.053300  0.278200  0.721800  1.0  -0.0636
  C  C197  1  0.888700  0.258300  0.258300  1.0  0.6196
  C  C198  1  0.946200  0.321900  0.321900  1.0  -0.1438
  C  C199  1  0.946700  0.278200  0.278200  1.0  -0.0655
  C  C200  1  0.111300  0.258300  0.258300  1.0  0.6204
  C  C201  1  0.053800  0.321900  0.321900  1.0  -0.142
  C  C202  1  0.053300  0.278200  0.278200  1.0  -0.064
  C  C203  1  0.888700  0.741700  0.258300  1.0  0.6199
  C  C204  1  0.946200  0.678100  0.321900  1.0  -0.1443
  C  C205  1  0.946700  0.721800  0.278200  1.0  -0.0648
  C  C206  1  0.111300  0.741700  0.741700  1.0  0.6213
  C  C207  1  0.053800  0.678100  0.678100  1.0  -0.1432
  C  C208  1  0.053300  0.721800  0.721800  1.0  -0.0639
  C  C209  1  0.888700  0.258300  0.741700  1.0  0.62
  C  C210  1  0.946200  0.321900  0.678100  1.0  -0.1439
  C  C211  1  0.946700  0.278200  0.721800  1.0  -0.0646
  C  C212  1  0.258300  0.741700  0.888700  1.0  0.6217
  C  C213  1  0.321900  0.678100  0.946200  1.0  -0.1432
  C  C214  1  0.278200  0.721800  0.946700  1.0  -0.0652
  C  C215  1  0.741700  0.741700  0.111300  1.0  0.622
  C  C216  1  0.678100  0.678100  0.053800  1.0  -0.1431
  C  C217  1  0.721800  0.721800  0.053300  1.0  -0.0653
  C  C218  1  0.741700  0.258300  0.888700  1.0  0.6212
  C  C219  1  0.678100  0.321900  0.946200  1.0  -0.1429
  C  C220  1  0.721800  0.278200  0.946700  1.0  -0.0651
  C  C221  1  0.258300  0.258300  0.111300  1.0  0.6216
  C  C222  1  0.321900  0.321900  0.053800  1.0  -0.1421
  C  C223  1  0.278200  0.278200  0.053300  1.0  -0.0653
  C  C224  1  0.741700  0.111300  0.741700  1.0  0.6222
  C  C225  1  0.678100  0.053800  0.678100  1.0  -0.1442
  C  C226  1  0.721800  0.053300  0.721800  1.0  -0.0635
  C  C227  1  0.741700  0.888700  0.258300  1.0  0.622
  C  C228  1  0.678100  0.946200  0.321900  1.0  -0.1439
  C  C229  1  0.721800  0.946700  0.278200  1.0  -0.0638
  C  C230  1  0.258300  0.111300  0.258300  1.0  0.6214
  C  C231  1  0.321900  0.053800  0.321900  1.0  -0.1431
  C  C232  1  0.278200  0.053300  0.278200  1.0  -0.0636
  C  C233  1  0.258300  0.888700  0.741700  1.0  0.6223
  C  C234  1  0.321900  0.946200  0.678100  1.0  -0.1441
  C  C235  1  0.278200  0.946700  0.721800  1.0  -0.0639
  N  N236  1  0.405900  0.000000  0.500000  1.0  -0.3588
  N  N237  1  0.594100  0.000000  0.500000  1.0  -0.356
  N  N238  1  0.500000  0.405900  0.000000  1.0  -0.3534
  N  N239  1  0.500000  0.594100  0.000000  1.0  -0.3548
  N  N240  1  0.000000  0.500000  0.405900  1.0  -0.3534
  N  N241  1  0.000000  0.500000  0.594100  1.0  -0.3533
  N  N242  1  0.000000  0.405900  0.500000  1.0  -0.3534
  N  N243  1  0.000000  0.594100  0.500000  1.0  -0.3548
  N  N244  1  0.405900  0.500000  0.000000  1.0  -0.3588
  N  N245  1  0.594100  0.500000  0.000000  1.0  -0.356
  N  N246  1  0.500000  0.000000  0.594100  1.0  -0.3533
  N  N247  1  0.500000  0.000000  0.405900  1.0  -0.3534
  O  O248  1  0.219400  0.111700  0.780600  1.0  -0.5732
  O  O249  1  0.276300  0.158600  0.723700  1.0  -0.5938
  O  O250  1  0.780600  0.888300  0.780600  1.0  -0.5748
  O  O251  1  0.723700  0.841400  0.723700  1.0  -0.5958
  O  O252  1  0.780600  0.111700  0.219400  1.0  -0.5735
  O  O253  1  0.723700  0.158600  0.276300  1.0  -0.5956
  O  O254  1  0.219400  0.888300  0.219400  1.0  -0.5717
  O  O255  1  0.276300  0.841400  0.276300  1.0  -0.5928
  O  O256  1  0.780600  0.219400  0.111700  1.0  -0.5737
  O  O257  1  0.723700  0.276300  0.158600  1.0  -0.5953
  O  O258  1  0.780600  0.780600  0.888300  1.0  -0.5744
  O  O259  1  0.723700  0.723700  0.841400  1.0  -0.598
  O  O260  1  0.219400  0.780600  0.111700  1.0  -0.5737
  O  O261  1  0.276300  0.723700  0.158600  1.0  -0.5915
  O  O262  1  0.219400  0.219400  0.888300  1.0  -0.5713
  O  O263  1  0.276300  0.276300  0.841400  1.0  -0.5952
  O  O264  1  0.111700  0.780600  0.219400  1.0  -0.5738
  O  O265  1  0.158600  0.723700  0.276300  1.0  -0.5959
  O  O266  1  0.888300  0.780600  0.780600  1.0  -0.5729
  O  O267  1  0.841400  0.723700  0.723700  1.0  -0.5984
  O  O268  1  0.111700  0.219400  0.780600  1.0  -0.5741
  O  O269  1  0.158600  0.276300  0.723700  1.0  -0.5956
  O  O270  1  0.888300  0.219400  0.219400  1.0  -0.5705
  O  O271  1  0.841400  0.276300  0.276300  1.0  -0.5961
  O  O272  1  0.111700  0.219400  0.219400  1.0  -0.5718
  O  O273  1  0.158600  0.276300  0.276300  1.0  -0.5957
  O  O274  1  0.888300  0.780600  0.219400  1.0  -0.5725
  O  O275  1  0.841400  0.723700  0.276300  1.0  -0.5975
  O  O276  1  0.111700  0.780600  0.780600  1.0  -0.5744
  O  O277  1  0.158600  0.723700  0.723700  1.0  -0.596
  O  O278  1  0.888300  0.219400  0.780600  1.0  -0.5729
  O  O279  1  0.841400  0.276300  0.723700  1.0  -0.5974
  O  O280  1  0.219400  0.780600  0.888300  1.0  -0.5732
  O  O281  1  0.276300  0.723700  0.841400  1.0  -0.5951
  O  O282  1  0.780600  0.780600  0.111700  1.0  -0.5751
  O  O283  1  0.723700  0.723700  0.158600  1.0  -0.5955
  O  O284  1  0.780600  0.219400  0.888300  1.0  -0.5734
  O  O285  1  0.723700  0.276300  0.841400  1.0  -0.5975
  O  O286  1  0.219400  0.219400  0.111700  1.0  -0.5718
  O  O287  1  0.276300  0.276300  0.158600  1.0  -0.5918
  O  O288  1  0.780600  0.111700  0.780600  1.0  -0.575
  O  O289  1  0.723700  0.158600  0.723700  1.0  -0.5965
  O  O290  1  0.780600  0.888300  0.219400  1.0  -0.5735
  O  O291  1  0.723700  0.841400  0.276300  1.0  -0.5953
  O  O292  1  0.219400  0.111700  0.219400  1.0  -0.5716
  O  O293  1  0.276300  0.158600  0.276300  1.0  -0.5925
  O  O294  1  0.219400  0.888300  0.780600  1.0  -0.5729
  O  O295  1  0.276300  0.841400  0.723700  1.0  -0.5933
