# generated using pymatgen
data_Cu4H24C16N12O
_symmetry_space_group_name_H-M   'P 1'
_cell_length_a   12.77400000
_cell_length_b   19.29900000
_cell_length_c   11.05600000
_cell_angle_alpha   90.00000000
_cell_angle_beta   98.75200000
_cell_angle_gamma   90.00000000
_symmetry_Int_Tables_number   1
_chemical_formula_structural   Cu4H24C16N12O
_chemical_formula_sum   'Cu8 H48 C32 N24 O2'
_cell_volume   2693.84894129
_cell_formula_units_Z   2
loop_
 _symmetry_equiv_pos_site_id
 _symmetry_equiv_pos_as_xyz
  1  'x, y, z'
loop_
 _atom_site_type_symbol
 _atom_site_label
 _atom_site_symmetry_multiplicity
 _atom_site_fract_x
 _atom_site_fract_y
 _atom_site_fract_z
 _atom_site_occupancy
 _atom_site_charge
  Cu  Cu1  1  0.000000  0.322890  0.000000  1.0  0.3636
  Cu  Cu2  1  0.500000  0.822890  0.000000  1.0  0.3636
  Cu  Cu3  1  0.000000  0.677110  0.000000  1.0  0.3624
  Cu  Cu4  1  0.500000  0.177110  0.000000  1.0  0.3624
  Cu  Cu5  1  0.000000  0.410100  0.500000  1.0  0.5594
  Cu  Cu6  1  0.500000  0.910100  0.500000  1.0  0.5594
  Cu  Cu7  1  0.000000  0.589900  0.500000  1.0  0.5614
  Cu  Cu8  1  0.500000  0.089900  0.500000  1.0  0.5614
  H  H9  1  0.929500  0.376800  0.235100  1.0  0.0552
  H  H10  1  0.202500  0.300700  0.197400  1.0  0.0685
  H  H11  1  0.238500  0.388200  0.490600  1.0  0.0761
  H  H12  1  0.306600  0.345000  0.410700  1.0  0.059
  H  H13  1  0.285100  0.290800  0.603600  1.0  0.0429
  H  H14  1  0.165500  0.279700  0.549800  1.0  0.0557
  H  H15  1  0.429500  0.876800  0.235100  1.0  0.0552
  H  H16  1  0.702500  0.800700  0.197400  1.0  0.0685
  H  H17  1  0.738500  0.888200  0.490600  1.0  0.0761
  H  H18  1  0.806600  0.845000  0.410700  1.0  0.059
  H  H19  1  0.785100  0.790800  0.603600  1.0  0.0429
  H  H20  1  0.665500  0.779700  0.549800  1.0  0.0557
  H  H21  1  0.070500  0.376800  0.764900  1.0  0.0545
  H  H22  1  0.797500  0.300700  0.802600  1.0  0.0694
  H  H23  1  0.761500  0.388200  0.509400  1.0  0.0778
  H  H24  1  0.693400  0.345000  0.589300  1.0  0.0585
  H  H25  1  0.714900  0.290800  0.396400  1.0  0.044
  H  H26  1  0.834500  0.279700  0.450200  1.0  0.0546
  H  H27  1  0.570500  0.876800  0.764900  1.0  0.0545
  H  H28  1  0.297500  0.800700  0.802600  1.0  0.0694
  H  H29  1  0.261500  0.888200  0.509400  1.0  0.0778
  H  H30  1  0.193400  0.845000  0.589300  1.0  0.0585
  H  H31  1  0.214900  0.790800  0.396400  1.0  0.044
  H  H32  1  0.334500  0.779700  0.450200  1.0  0.0546
  H  H33  1  0.070500  0.623200  0.764900  1.0  0.0543
  H  H34  1  0.797500  0.699300  0.802600  1.0  0.0697
  H  H35  1  0.761500  0.611800  0.509400  1.0  0.0777
  H  H36  1  0.693400  0.655000  0.589300  1.0  0.0586
  H  H37  1  0.714900  0.709200  0.396400  1.0  0.0421
  H  H38  1  0.834500  0.720300  0.450200  1.0  0.0544
  H  H39  1  0.570500  0.123200  0.764900  1.0  0.0543
  H  H40  1  0.297500  0.199300  0.802600  1.0  0.0697
  H  H41  1  0.261500  0.111800  0.509400  1.0  0.0777
  H  H42  1  0.193400  0.155000  0.589300  1.0  0.0586
  H  H43  1  0.214900  0.209200  0.396400  1.0  0.0421
  H  H44  1  0.334500  0.220300  0.450200  1.0  0.0544
  H  H45  1  0.929500  0.623200  0.235100  1.0  0.0558
  H  H46  1  0.202500  0.699300  0.197400  1.0  0.0686
  H  H47  1  0.238500  0.611800  0.490600  1.0  0.0792
  H  H48  1  0.306600  0.655000  0.410700  1.0  0.0592
  H  H49  1  0.285100  0.709200  0.603600  1.0  0.0428
  H  H50  1  0.165500  0.720300  0.549800  1.0  0.0556
  H  H51  1  0.429500  0.123200  0.235100  1.0  0.0558
  H  H52  1  0.702500  0.199300  0.197400  1.0  0.0686
  H  H53  1  0.738500  0.111800  0.490600  1.0  0.0792
  H  H54  1  0.806600  0.155000  0.410700  1.0  0.0592
  H  H55  1  0.785100  0.209200  0.603600  1.0  0.0428
  H  H56  1  0.665500  0.220300  0.549800  1.0  0.0556
  C  C57  1  0.000000  0.363000  0.252000  1.0  0.1587
  C  C58  1  0.146600  0.321200  0.229000  1.0  0.0636
  C  C59  1  0.240700  0.345700  0.444200  1.0  -0.048
  C  C60  1  0.236300  0.283400  0.528600  1.0  -0.1393
  C  C61  1  0.500000  0.863000  0.252000  1.0  0.1587
  C  C62  1  0.646600  0.821200  0.229000  1.0  0.0636
  C  C63  1  0.740700  0.845700  0.444200  1.0  -0.048
  C  C64  1  0.736300  0.783400  0.528600  1.0  -0.1393
  C  C65  1  0.000000  0.363000  0.748000  1.0  0.1589
  C  C66  1  0.853400  0.321200  0.771000  1.0  0.0623
  C  C67  1  0.759300  0.345700  0.555800  1.0  -0.047
  C  C68  1  0.763700  0.283400  0.471400  1.0  -0.1394
  C  C69  1  0.500000  0.863000  0.748000  1.0  0.1589
  C  C70  1  0.353400  0.821200  0.771000  1.0  0.0623
  C  C71  1  0.259300  0.845700  0.555800  1.0  -0.047
  C  C72  1  0.263700  0.783400  0.471400  1.0  -0.1394
  C  C73  1  0.000000  0.637000  0.748000  1.0  0.159
  C  C74  1  0.853400  0.678800  0.771000  1.0  0.0619
  C  C75  1  0.759300  0.654300  0.555800  1.0  -0.0441
  C  C76  1  0.763700  0.716600  0.471400  1.0  -0.1417
  C  C77  1  0.500000  0.137000  0.748000  1.0  0.159
  C  C78  1  0.353400  0.178800  0.771000  1.0  0.0619
  C  C79  1  0.259300  0.154300  0.555800  1.0  -0.0441
  C  C80  1  0.263700  0.216600  0.471400  1.0  -0.1417
  C  C81  1  0.000000  0.637000  0.252000  1.0  0.1587
  C  C82  1  0.146600  0.678800  0.229000  1.0  0.0639
  C  C83  1  0.240700  0.654300  0.444200  1.0  -0.0449
  C  C84  1  0.236300  0.716600  0.528600  1.0  -0.1424
  C  C85  1  0.500000  0.137000  0.252000  1.0  0.1587
  C  C86  1  0.646600  0.178800  0.229000  1.0  0.0639
  C  C87  1  0.740700  0.154300  0.444200  1.0  -0.0449
  C  C88  1  0.736300  0.216600  0.528600  1.0  -0.1424
  N  N89  1  0.051000  0.332400  0.167600  1.0  -0.4149
  N  N90  1  0.056900  0.371500  0.357900  1.0  -0.3928
  N  N91  1  0.150400  0.343900  0.343500  1.0  0.163
  N  N92  1  0.551000  0.832400  0.167600  1.0  -0.4149
  N  N93  1  0.556900  0.871500  0.357900  1.0  -0.3928
  N  N94  1  0.650400  0.843900  0.343500  1.0  0.163
  N  N95  1  0.949000  0.332400  0.832400  1.0  -0.4096
  N  N96  1  0.943100  0.371500  0.642100  1.0  -0.3939
  N  N97  1  0.849600  0.343900  0.656500  1.0  0.1616
  N  N98  1  0.449000  0.832400  0.832400  1.0  -0.4096
  N  N99  1  0.443100  0.871500  0.642100  1.0  -0.3939
  N  N100  1  0.349600  0.843900  0.656500  1.0  0.1616
  N  N101  1  0.949000  0.667600  0.832400  1.0  -0.4096
  N  N102  1  0.943100  0.628500  0.642100  1.0  -0.3932
  N  N103  1  0.849600  0.656100  0.656500  1.0  0.163
  N  N104  1  0.449000  0.167600  0.832400  1.0  -0.4096
  N  N105  1  0.443100  0.128500  0.642100  1.0  -0.3932
  N  N106  1  0.349600  0.156100  0.656500  1.0  0.163
  N  N107  1  0.051000  0.667600  0.167600  1.0  -0.4139
  N  N108  1  0.056900  0.628500  0.357900  1.0  -0.3929
  N  N109  1  0.150400  0.656100  0.343500  1.0  0.1629
  N  N110  1  0.551000  0.167600  0.167600  1.0  -0.4139
  N  N111  1  0.556900  0.128500  0.357900  1.0  -0.3929
  N  N112  1  0.650400  0.156100  0.343500  1.0  0.1629
  O  O113  1  0.000000  0.500000  0.500000  1.0  -0.8512
  O  O114  1  0.500000  0.000000  0.500000  1.0  -0.8512
