# generated using pymatgen
data_In2H9C21(NO4)3
_symmetry_space_group_name_H-M   'P 1'
_cell_length_a   16.06300000
_cell_length_b   16.48500000
_cell_length_c   19.02500000
_cell_angle_alpha   90.00000000
_cell_angle_beta   90.00000000
_cell_angle_gamma   90.00000000
_symmetry_Int_Tables_number   1
_chemical_formula_structural   In2H9C21(NO4)3
_chemical_formula_sum   'In16 H72 C168 N24 O96'
_cell_volume   5037.79250887
_cell_formula_units_Z   8
loop_
 _symmetry_equiv_pos_site_id
 _symmetry_equiv_pos_as_xyz
  1  'x, y, z'
loop_
 _atom_site_type_symbol
 _atom_site_label
 _atom_site_symmetry_multiplicity
 _atom_site_fract_x
 _atom_site_fract_y
 _atom_site_fract_z
 _atom_site_occupancy
 _atom_site_charge
  In  In1  1  0.544130  0.257460  0.012600  1.0  1.569
  In  In2  1  0.279610  0.930520  0.815760  1.0  1.4956
  In  In3  1  0.955870  0.242540  0.012600  1.0  1.5697
  In  In4  1  0.220390  0.569480  0.815760  1.0  1.4963
  In  In5  1  0.455870  0.757460  0.487400  1.0  1.5689
  In  In6  1  0.720390  0.430520  0.684240  1.0  1.4967
  In  In7  1  0.044130  0.742540  0.487400  1.0  1.5683
  In  In8  1  0.779610  0.069480  0.684240  1.0  1.496
  In  In9  1  0.455870  0.742540  0.987400  1.0  1.5687
  In  In10  1  0.720390  0.069480  0.184240  1.0  1.4968
  In  In11  1  0.044130  0.757460  0.987400  1.0  1.5685
  In  In12  1  0.779610  0.430520  0.184240  1.0  1.4959
  In  In13  1  0.544130  0.242540  0.512600  1.0  1.5693
  In  In14  1  0.279610  0.569480  0.315760  1.0  1.4956
  In  In15  1  0.955870  0.257460  0.512600  1.0  1.5693
  In  In16  1  0.220390  0.930520  0.315760  1.0  1.4962
  H  H17  1  0.202600  0.956100  0.066300  1.0  0.1178
  H  H18  1  0.286000  0.067300  0.100100  1.0  0.11
  H  H19  1  0.392300  0.054700  0.911400  1.0  0.086
  H  H20  1  0.025200  0.043800  0.695600  1.0  0.1325
  H  H21  1  0.972200  0.125000  0.784200  1.0  0.0995
  H  H22  1  0.165400  0.068200  0.905700  1.0  0.0769
  H  H23  1  0.429300  0.101800  0.600300  1.0  0.0917
  H  H24  1  0.560500  0.234000  0.782500  1.0  0.1288
  H  H25  1  0.461500  0.135800  0.807700  1.0  0.1107
  H  H26  1  0.297400  0.543900  0.066300  1.0  0.1189
  H  H27  1  0.214000  0.432700  0.100100  1.0  0.1104
  H  H28  1  0.107700  0.445300  0.911400  1.0  0.0856
  H  H29  1  0.474800  0.456200  0.695600  1.0  0.1323
  H  H30  1  0.527800  0.375000  0.784200  1.0  0.0995
  H  H31  1  0.334600  0.431800  0.905700  1.0  0.0772
  H  H32  1  0.070700  0.398200  0.600300  1.0  0.0922
  H  H33  1  0.939500  0.266000  0.782500  1.0  0.129
  H  H34  1  0.038500  0.364200  0.807700  1.0  0.111
  H  H35  1  0.797400  0.456100  0.433700  1.0  0.1181
  H  H36  1  0.714000  0.567300  0.399900  1.0  0.11
  H  H37  1  0.607700  0.554700  0.588600  1.0  0.0853
  H  H38  1  0.974800  0.543800  0.804400  1.0  0.1314
  H  H39  1  0.027800  0.625000  0.715800  1.0  0.0999
  H  H40  1  0.834600  0.568200  0.594300  1.0  0.0755
  H  H41  1  0.570700  0.601800  0.899700  1.0  0.092
  H  H42  1  0.439500  0.734000  0.717500  1.0  0.1286
  H  H43  1  0.538500  0.635800  0.692300  1.0  0.1112
  H  H44  1  0.702600  0.043900  0.433700  1.0  0.1171
  H  H45  1  0.786000  0.932700  0.399900  1.0  0.1104
  H  H46  1  0.892300  0.945300  0.588600  1.0  0.0859
  H  H47  1  0.525200  0.956200  0.804400  1.0  0.1318
  H  H48  1  0.472200  0.875000  0.715800  1.0  0.0991
  H  H49  1  0.665400  0.931800  0.594300  1.0  0.0755
  H  H50  1  0.929300  0.898200  0.899700  1.0  0.0917
  H  H51  1  0.060500  0.766000  0.717500  1.0  0.1286
  H  H52  1  0.961500  0.864200  0.692300  1.0  0.111
  H  H53  1  0.797400  0.043900  0.933700  1.0  0.1186
  H  H54  1  0.714000  0.932700  0.899900  1.0  0.1105
  H  H55  1  0.607700  0.945300  0.088600  1.0  0.0856
  H  H56  1  0.974800  0.956200  0.304400  1.0  0.1316
  H  H57  1  0.027800  0.875000  0.215800  1.0  0.0997
  H  H58  1  0.834600  0.931800  0.094300  1.0  0.0754
  H  H59  1  0.570700  0.898200  0.399700  1.0  0.0918
  H  H60  1  0.439500  0.766000  0.217500  1.0  0.1284
  H  H61  1  0.538500  0.864200  0.192300  1.0  0.1108
  H  H62  1  0.702600  0.456100  0.933700  1.0  0.1165
  H  H63  1  0.786000  0.567300  0.899900  1.0  0.1103
  H  H64  1  0.892300  0.554700  0.088600  1.0  0.0855
  H  H65  1  0.525200  0.543800  0.304400  1.0  0.1317
  H  H66  1  0.472200  0.625000  0.215800  1.0  0.0994
  H  H67  1  0.665400  0.568200  0.094300  1.0  0.0753
  H  H68  1  0.929300  0.601800  0.399700  1.0  0.0917
  H  H69  1  0.060500  0.734000  0.217500  1.0  0.1288
  H  H70  1  0.961500  0.635800  0.192300  1.0  0.1114
  H  H71  1  0.202600  0.543900  0.566300  1.0  0.1176
  H  H72  1  0.286000  0.432700  0.600100  1.0  0.1106
  H  H73  1  0.392300  0.445300  0.411400  1.0  0.0859
  H  H74  1  0.025200  0.456200  0.195600  1.0  0.1324
  H  H75  1  0.972200  0.375000  0.284200  1.0  0.0994
  H  H76  1  0.165400  0.431800  0.405700  1.0  0.0772
  H  H77  1  0.429300  0.398200  0.100300  1.0  0.092
  H  H78  1  0.560500  0.266000  0.282500  1.0  0.1291
  H  H79  1  0.461500  0.364200  0.307700  1.0  0.1109
  H  H80  1  0.297400  0.956100  0.566300  1.0  0.1192
  H  H81  1  0.214000  0.067300  0.600100  1.0  0.1104
  H  H82  1  0.107700  0.054700  0.411400  1.0  0.0858
  H  H83  1  0.474800  0.043800  0.195600  1.0  0.1322
  H  H84  1  0.527800  0.125000  0.284200  1.0  0.0995
  H  H85  1  0.334600  0.068200  0.405700  1.0  0.0771
  H  H86  1  0.070700  0.101800  0.100300  1.0  0.0921
  H  H87  1  0.939500  0.234000  0.282500  1.0  0.1287
  H  H88  1  0.038500  0.135800  0.307700  1.0  0.1107
  C  C89  1  0.192400  0.878000  0.946700  1.0  0.6353
  C  C90  1  0.248800  0.946600  0.973600  1.0  0.0917
  C  C91  1  0.241500  0.977400  0.035100  1.0  -0.0885
  C  C92  1  0.292100  0.043800  0.056000  1.0  0.088
  C  C93  1  0.349800  0.072300  0.009700  1.0  -0.1839
  C  C94  1  0.353200  0.036000  0.943600  1.0  0.2122
  C  C95  1  0.407500  0.141400  0.028800  1.0  0.704
  C  C96  1  0.152300  0.938100  0.702300  1.0  0.5839
  C  C97  1  0.122000  0.004200  0.753600  1.0  0.1314
  C  C98  1  0.051400  0.047300  0.739100  1.0  -0.1189
  C  C99  1  0.020900  0.095700  0.791500  1.0  0.0366
  C  C100  1  0.061600  0.101600  0.855100  1.0  -0.1795
  C  C101  1  0.135900  0.061400  0.864000  1.0  0.1837
  C  C102  1  0.027200  0.151300  0.915200  1.0  0.6603
  C  C103  1  0.371300  0.044300  0.721000  1.0  0.6833
  C  C104  1  0.434000  0.110400  0.709000  1.0  -0.2003
  C  C105  1  0.453900  0.130600  0.636800  1.0  0.2241
  C  C106  1  0.545300  0.228800  0.676100  1.0  0.1015
  C  C107  1  0.531400  0.208300  0.746600  1.0  -0.0903
  C  C108  1  0.473400  0.149000  0.761200  1.0  0.0465
  C  C109  1  0.602700  0.295900  0.655100  1.0  0.6433
  C  C110  1  0.307600  0.622000  0.946700  1.0  0.6356
  C  C111  1  0.251200  0.553400  0.973600  1.0  0.0928
  C  C112  1  0.258500  0.522600  0.035100  1.0  -0.0904
  C  C113  1  0.207900  0.456200  0.056000  1.0  0.0866
  C  C114  1  0.150200  0.427700  0.009700  1.0  -0.1838
  C  C115  1  0.146800  0.464000  0.943600  1.0  0.2137
  C  C116  1  0.092500  0.358600  0.028800  1.0  0.7044
  C  C117  1  0.347700  0.561900  0.702300  1.0  0.5836
  C  C118  1  0.378000  0.495800  0.753600  1.0  0.1308
  C  C119  1  0.448600  0.452700  0.739100  1.0  -0.1204
  C  C120  1  0.479100  0.404300  0.791500  1.0  0.0356
  C  C121  1  0.438400  0.398400  0.855100  1.0  -0.1796
  C  C122  1  0.364100  0.438600  0.864000  1.0  0.184
  C  C123  1  0.472800  0.348700  0.915200  1.0  0.6608
  C  C124  1  0.128700  0.455700  0.721000  1.0  0.6832
  C  C125  1  0.066000  0.389600  0.709000  1.0  -0.2011
  C  C126  1  0.046100  0.369400  0.636800  1.0  0.2244
  C  C127  1  0.954700  0.271200  0.676100  1.0  0.1005
  C  C128  1  0.968600  0.291700  0.746600  1.0  -0.0888
  C  C129  1  0.026600  0.351000  0.761200  1.0  0.0459
  C  C130  1  0.897300  0.204100  0.655100  1.0  0.6438
  C  C131  1  0.807600  0.378000  0.553300  1.0  0.6352
  C  C132  1  0.751200  0.446600  0.526400  1.0  0.091
  C  C133  1  0.758500  0.477400  0.464900  1.0  -0.0896
  C  C134  1  0.707900  0.543800  0.444000  1.0  0.0877
  C  C135  1  0.650200  0.572300  0.490300  1.0  -0.1826
  C  C136  1  0.646800  0.536000  0.556400  1.0  0.2132
  C  C137  1  0.592500  0.641400  0.471200  1.0  0.704
  C  C138  1  0.847700  0.438100  0.797700  1.0  0.5848
  C  C139  1  0.878000  0.504200  0.746400  1.0  0.1314
  C  C140  1  0.948600  0.547300  0.760900  1.0  -0.1196
  C  C141  1  0.979100  0.595700  0.708500  1.0  0.0346
  C  C142  1  0.938400  0.601600  0.644900  1.0  -0.1787
  C  C143  1  0.864100  0.561400  0.636000  1.0  0.1843
  C  C144  1  0.972800  0.651300  0.584800  1.0  0.6602
  C  C145  1  0.628700  0.544300  0.779000  1.0  0.683
  C  C146  1  0.566000  0.610400  0.791000  1.0  -0.2009
  C  C147  1  0.546100  0.630600  0.863200  1.0  0.225
  C  C148  1  0.454700  0.728800  0.823900  1.0  0.1016
  C  C149  1  0.468600  0.708300  0.753400  1.0  -0.0891
  C  C150  1  0.526600  0.649000  0.738800  1.0  0.0463
  C  C151  1  0.397300  0.795900  0.844900  1.0  0.6438
  C  C152  1  0.692400  0.122000  0.553300  1.0  0.6365
  C  C153  1  0.748800  0.053400  0.526400  1.0  0.0934
  C  C154  1  0.741500  0.022600  0.464900  1.0  -0.0882
  C  C155  1  0.792100  0.956200  0.444000  1.0  0.0837
  C  C156  1  0.849800  0.927700  0.490300  1.0  -0.1844
  C  C157  1  0.853200  0.964000  0.556400  1.0  0.2125
  C  C158  1  0.907500  0.858600  0.471200  1.0  0.7034
  C  C159  1  0.652300  0.061900  0.797700  1.0  0.583
  C  C160  1  0.622000  0.995800  0.746400  1.0  0.1314
  C  C161  1  0.551400  0.952700  0.760900  1.0  -0.119
  C  C162  1  0.520900  0.904300  0.708500  1.0  0.0377
  C  C163  1  0.561600  0.898400  0.644900  1.0  -0.1792
  C  C164  1  0.635900  0.938600  0.636000  1.0  0.1844
  C  C165  1  0.527200  0.848700  0.584800  1.0  0.6603
  C  C166  1  0.871300  0.955700  0.779000  1.0  0.6834
  C  C167  1  0.934000  0.889600  0.791000  1.0  -0.2011
  C  C168  1  0.953900  0.869400  0.863200  1.0  0.2252
  C  C169  1  0.045300  0.771200  0.823900  1.0  0.1013
  C  C170  1  0.031400  0.791700  0.753400  1.0  -0.0895
  C  C171  1  0.973400  0.851000  0.738800  1.0  0.0459
  C  C172  1  0.102700  0.704100  0.844900  1.0  0.6435
  C  C173  1  0.807600  0.122000  0.053300  1.0  0.636
  C  C174  1  0.751200  0.053400  0.026400  1.0  0.0934
  C  C175  1  0.758500  0.022600  0.964900  1.0  -0.0894
  C  C176  1  0.707900  0.956200  0.944000  1.0  0.0846
  C  C177  1  0.650200  0.927700  0.990300  1.0  -0.1838
  C  C178  1  0.646800  0.964000  0.056400  1.0  0.214
  C  C179  1  0.592500  0.858600  0.971200  1.0  0.7038
  C  C180  1  0.847700  0.061900  0.297700  1.0  0.5829
  C  C181  1  0.878000  0.995800  0.246400  1.0  0.1311
  C  C182  1  0.948600  0.952700  0.260900  1.0  -0.1199
  C  C183  1  0.979100  0.904300  0.208500  1.0  0.0358
  C  C184  1  0.938400  0.898400  0.144900  1.0  -0.1794
  C  C185  1  0.864100  0.938600  0.136000  1.0  0.1845
  C  C186  1  0.972800  0.848700  0.084800  1.0  0.6606
  C  C187  1  0.628700  0.955700  0.279000  1.0  0.6833
  C  C188  1  0.566000  0.889600  0.291000  1.0  -0.2011
  C  C189  1  0.546100  0.869400  0.363200  1.0  0.2254
  C  C190  1  0.454700  0.771200  0.323900  1.0  0.101
  C  C191  1  0.468600  0.791700  0.253400  1.0  -0.0885
  C  C192  1  0.526600  0.851000  0.238800  1.0  0.0458
  C  C193  1  0.397300  0.704100  0.344900  1.0  0.644
  C  C194  1  0.692400  0.378000  0.053300  1.0  0.6359
  C  C195  1  0.748800  0.446600  0.026400  1.0  0.091
  C  C196  1  0.741500  0.477400  0.964900  1.0  -0.0883
  C  C197  1  0.792100  0.543800  0.944000  1.0  0.0868
  C  C198  1  0.849800  0.572300  0.990300  1.0  -0.1839
  C  C199  1  0.853200  0.536000  0.056400  1.0  0.2119
  C  C200  1  0.907500  0.641400  0.971200  1.0  0.7038
  C  C201  1  0.652300  0.438100  0.297700  1.0  0.5853
  C  C202  1  0.622000  0.504200  0.246400  1.0  0.1311
  C  C203  1  0.551400  0.547300  0.260900  1.0  -0.1187
  C  C204  1  0.520900  0.595700  0.208500  1.0  0.0369
  C  C205  1  0.561600  0.601600  0.144900  1.0  -0.1786
  C  C206  1  0.635900  0.561400  0.136000  1.0  0.1843
  C  C207  1  0.527200  0.651300  0.084800  1.0  0.6599
  C  C208  1  0.871300  0.544300  0.279000  1.0  0.6835
  C  C209  1  0.934000  0.610400  0.291000  1.0  -0.2002
  C  C210  1  0.953900  0.630600  0.363200  1.0  0.2243
  C  C211  1  0.045300  0.728800  0.323900  1.0  0.1017
  C  C212  1  0.031400  0.708300  0.253400  1.0  -0.0898
  C  C213  1  0.973400  0.649000  0.238800  1.0  0.0461
  C  C214  1  0.102700  0.795900  0.344900  1.0  0.6434
  C  C215  1  0.192400  0.622000  0.446700  1.0  0.6359
  C  C216  1  0.248800  0.553400  0.473600  1.0  0.0929
  C  C217  1  0.241500  0.522600  0.535100  1.0  -0.0889
  C  C218  1  0.292100  0.456200  0.556000  1.0  0.0856
  C  C219  1  0.349800  0.427700  0.509700  1.0  -0.1843
  C  C220  1  0.353200  0.464000  0.443600  1.0  0.2122
  C  C221  1  0.407500  0.358600  0.528800  1.0  0.7039
  C  C222  1  0.152300  0.561900  0.202300  1.0  0.5832
  C  C223  1  0.122000  0.495800  0.253600  1.0  0.1315
  C  C224  1  0.051400  0.452700  0.239100  1.0  -0.1197
  C  C225  1  0.020900  0.404300  0.291500  1.0  0.0374
  C  C226  1  0.061600  0.398400  0.355100  1.0  -0.1793
  C  C227  1  0.135900  0.438600  0.364000  1.0  0.184
  C  C228  1  0.027200  0.348700  0.415200  1.0  0.6607
  C  C229  1  0.371300  0.455700  0.221000  1.0  0.6833
  C  C230  1  0.434000  0.389600  0.209000  1.0  -0.2011
  C  C231  1  0.453900  0.369400  0.136800  1.0  0.2243
  C  C232  1  0.545300  0.271200  0.176100  1.0  0.101
  C  C233  1  0.531400  0.291700  0.246600  1.0  -0.0896
  C  C234  1  0.473400  0.351000  0.261200  1.0  0.0466
  C  C235  1  0.602700  0.204100  0.155100  1.0  0.6432
  C  C236  1  0.307600  0.878000  0.446700  1.0  0.6347
  C  C237  1  0.251200  0.946600  0.473600  1.0  0.0915
  C  C238  1  0.258500  0.977400  0.535100  1.0  -0.0899
  C  C239  1  0.207900  0.043800  0.556000  1.0  0.089
  C  C240  1  0.150200  0.072300  0.509700  1.0  -0.1826
  C  C241  1  0.146800  0.036000  0.443600  1.0  0.2135
  C  C242  1  0.092500  0.141400  0.528800  1.0  0.7044
  C  C243  1  0.347700  0.938100  0.202300  1.0  0.5839
  C  C244  1  0.378000  0.004200  0.253600  1.0  0.1313
  C  C245  1  0.448600  0.047300  0.239100  1.0  -0.1193
  C  C246  1  0.479100  0.095700  0.291500  1.0  0.0346
  C  C247  1  0.438400  0.101600  0.355100  1.0  -0.1799
  C  C248  1  0.364100  0.061400  0.364000  1.0  0.1836
  C  C249  1  0.472800  0.151300  0.415200  1.0  0.6604
  C  C250  1  0.128700  0.044300  0.221000  1.0  0.6829
  C  C251  1  0.066000  0.110400  0.209000  1.0  -0.2008
  C  C252  1  0.046100  0.130600  0.136800  1.0  0.2243
  C  C253  1  0.954700  0.228800  0.176100  1.0  0.1013
  C  C254  1  0.968600  0.208300  0.246600  1.0  -0.0895
  C  C255  1  0.026600  0.149000  0.261200  1.0  0.046
  C  C256  1  0.897300  0.295900  0.155100  1.0  0.6438
  N  N257  1  0.302500  0.975400  0.924300  1.0  -0.3972
  N  N258  1  0.167400  0.011800  0.813100  1.0  -0.3863
  N  N259  1  0.507100  0.190100  0.622500  1.0  -0.3862
  N  N260  1  0.197500  0.524600  0.924300  1.0  -0.3967
  N  N261  1  0.332600  0.488200  0.813100  1.0  -0.3859
  N  N262  1  0.992900  0.309900  0.622500  1.0  -0.3866
  N  N263  1  0.697500  0.475400  0.575700  1.0  -0.3954
  N  N264  1  0.832600  0.511800  0.686900  1.0  -0.3865
  N  N265  1  0.492900  0.690100  0.877500  1.0  -0.3848
  N  N266  1  0.802500  0.024600  0.575700  1.0  -0.395
  N  N267  1  0.667400  0.988200  0.686900  1.0  -0.3861
  N  N268  1  0.007100  0.809900  0.877500  1.0  -0.3843
  N  N269  1  0.697500  0.024600  0.075700  1.0  -0.3953
  N  N270  1  0.832600  0.988200  0.186900  1.0  -0.386
  N  N271  1  0.492900  0.809900  0.377500  1.0  -0.384
  N  N272  1  0.802500  0.475400  0.075700  1.0  -0.3953
  N  N273  1  0.667400  0.511800  0.186900  1.0  -0.3864
  N  N274  1  0.007100  0.690100  0.377500  1.0  -0.3853
  N  N275  1  0.302500  0.524600  0.424300  1.0  -0.3966
  N  N276  1  0.167400  0.488200  0.313100  1.0  -0.3859
  N  N277  1  0.507100  0.309900  0.122500  1.0  -0.3863
  N  N278  1  0.197500  0.975400  0.424300  1.0  -0.3974
  N  N279  1  0.332600  0.011800  0.313100  1.0  -0.3865
  N  N280  1  0.992900  0.190100  0.122500  1.0  -0.3863
  O  O281  1  0.200000  0.854500  0.883400  1.0  -0.5801
  O  O282  1  0.143500  0.848500  0.990300  1.0  -0.5889
  O  O283  1  0.394200  0.180900  0.080900  1.0  -0.5772
  O  O284  1  0.465300  0.158100  0.986700  1.0  -0.641
  O  O285  1  0.211500  0.893200  0.725500  1.0  -0.5975
  O  O286  1  0.114100  0.929000  0.647600  1.0  -0.5317
  O  O287  1  0.971000  0.203300  0.899100  1.0  -0.5753
  O  O288  1  0.052000  0.145300  0.976000  1.0  -0.5816
  O  O289  1  0.366200  0.020600  0.785100  1.0  -0.6734
  O  O290  1  0.332200  0.015200  0.675200  1.0  -0.5375
  O  O291  1  0.639800  0.332000  0.704700  1.0  -0.5384
  O  O292  1  0.607100  0.316000  0.593100  1.0  -0.5919
  O  O293  1  0.300000  0.645500  0.883400  1.0  -0.5804
  O  O294  1  0.356500  0.651500  0.990300  1.0  -0.5888
  O  O295  1  0.105800  0.319100  0.080900  1.0  -0.5754
  O  O296  1  0.034700  0.341900  0.986700  1.0  -0.6401
  O  O297  1  0.288500  0.606800  0.725500  1.0  -0.5984
  O  O298  1  0.385900  0.571000  0.647600  1.0  -0.531
  O  O299  1  0.529000  0.296700  0.899100  1.0  -0.5759
  O  O300  1  0.448000  0.354700  0.976000  1.0  -0.5818
  O  O301  1  0.133800  0.479400  0.785100  1.0  -0.6741
  O  O302  1  0.167800  0.484800  0.675200  1.0  -0.5365
  O  O303  1  0.860200  0.168000  0.704700  1.0  -0.539
  O  O304  1  0.892900  0.184000  0.593100  1.0  -0.5918
  O  O305  1  0.800000  0.354500  0.616600  1.0  -0.5797
  O  O306  1  0.856500  0.348500  0.509700  1.0  -0.5902
  O  O307  1  0.605800  0.680900  0.419100  1.0  -0.5743
  O  O308  1  0.534700  0.658100  0.513300  1.0  -0.6409
  O  O309  1  0.788500  0.393200  0.774500  1.0  -0.5976
  O  O310  1  0.885900  0.429000  0.852400  1.0  -0.5311
  O  O311  1  0.029000  0.703300  0.600900  1.0  -0.5757
  O  O312  1  0.948000  0.645300  0.524000  1.0  -0.5817
  O  O313  1  0.633800  0.520600  0.714900  1.0  -0.676
  O  O314  1  0.667800  0.515200  0.824800  1.0  -0.5361
  O  O315  1  0.360200  0.832000  0.795300  1.0  -0.5392
  O  O316  1  0.392900  0.816000  0.906900  1.0  -0.5919
  O  O317  1  0.700000  0.145500  0.616600  1.0  -0.5808
  O  O318  1  0.643500  0.151500  0.509700  1.0  -0.5884
  O  O319  1  0.894200  0.819100  0.419100  1.0  -0.5756
  O  O320  1  0.965300  0.841900  0.513300  1.0  -0.642
  O  O321  1  0.711500  0.106800  0.774500  1.0  -0.5989
  O  O322  1  0.614100  0.071000  0.852400  1.0  -0.5312
  O  O323  1  0.471000  0.796700  0.600900  1.0  -0.5761
  O  O324  1  0.552000  0.854700  0.524000  1.0  -0.5807
  O  O325  1  0.866200  0.979400  0.714900  1.0  -0.6754
  O  O326  1  0.832200  0.984800  0.824800  1.0  -0.5373
  O  O327  1  0.139800  0.668000  0.795300  1.0  -0.5382
  O  O328  1  0.107100  0.684000  0.906900  1.0  -0.5925
  O  O329  1  0.800000  0.145500  0.116600  1.0  -0.5807
  O  O330  1  0.856500  0.151500  0.009700  1.0  -0.5895
  O  O331  1  0.605800  0.819100  0.919100  1.0  -0.5747
  O  O332  1  0.534700  0.841900  0.013300  1.0  -0.6404
  O  O333  1  0.788500  0.106800  0.274500  1.0  -0.5988
  O  O334  1  0.885900  0.071000  0.352400  1.0  -0.5316
  O  O335  1  0.029000  0.796700  0.100900  1.0  -0.5763
  O  O336  1  0.948000  0.854700  0.024000  1.0  -0.5813
  O  O337  1  0.633800  0.979400  0.214900  1.0  -0.6759
  O  O338  1  0.667800  0.984800  0.324800  1.0  -0.5363
  O  O339  1  0.360200  0.668000  0.295300  1.0  -0.5388
  O  O340  1  0.392900  0.684000  0.406900  1.0  -0.5916
  O  O341  1  0.700000  0.354500  0.116600  1.0  -0.5798
  O  O342  1  0.643500  0.348500  0.009700  1.0  -0.5893
  O  O343  1  0.894200  0.680900  0.919100  1.0  -0.5754
  O  O344  1  0.965300  0.658100  0.013300  1.0  -0.6423
  O  O345  1  0.711500  0.393200  0.274500  1.0  -0.5978
  O  O346  1  0.614100  0.429000  0.352400  1.0  -0.5311
  O  O347  1  0.471000  0.703300  0.100900  1.0  -0.5756
  O  O348  1  0.552000  0.645300  0.024000  1.0  -0.5808
  O  O349  1  0.866200  0.520600  0.214900  1.0  -0.6752
  O  O350  1  0.832200  0.515200  0.324800  1.0  -0.5371
  O  O351  1  0.139800  0.832000  0.295300  1.0  -0.5385
  O  O352  1  0.107100  0.816000  0.406900  1.0  -0.5923
  O  O353  1  0.200000  0.645500  0.383400  1.0  -0.5804
  O  O354  1  0.143500  0.651500  0.490300  1.0  -0.5881
  O  O355  1  0.394200  0.319100  0.580900  1.0  -0.5765
  O  O356  1  0.465300  0.341900  0.486700  1.0  -0.6415
  O  O357  1  0.211500  0.606800  0.225500  1.0  -0.5985
  O  O358  1  0.114100  0.571000  0.147600  1.0  -0.5311
  O  O359  1  0.971000  0.296700  0.399100  1.0  -0.5755
  O  O360  1  0.052000  0.354700  0.476000  1.0  -0.5808
  O  O361  1  0.366200  0.479400  0.285100  1.0  -0.6736
  O  O362  1  0.332200  0.484800  0.175200  1.0  -0.5377
  O  O363  1  0.639800  0.168000  0.204700  1.0  -0.5385
  O  O364  1  0.607100  0.184000  0.093100  1.0  -0.5924
  O  O365  1  0.300000  0.854500  0.383400  1.0  -0.5801
  O  O366  1  0.356500  0.848500  0.490300  1.0  -0.5897
  O  O367  1  0.105800  0.180900  0.580900  1.0  -0.576
  O  O368  1  0.034700  0.158100  0.486700  1.0  -0.6395
  O  O369  1  0.288500  0.893200  0.225500  1.0  -0.5974
  O  O370  1  0.385900  0.929000  0.147600  1.0  -0.5312
  O  O371  1  0.529000  0.203300  0.399100  1.0  -0.5754
  O  O372  1  0.448000  0.145300  0.476000  1.0  -0.582
  O  O373  1  0.133800  0.020600  0.285100  1.0  -0.6741
  O  O374  1  0.167800  0.015200  0.175200  1.0  -0.5363
  O  O375  1  0.860200  0.332000  0.204700  1.0  -0.5387
  O  O376  1  0.892900  0.316000  0.093100  1.0  -0.5911
