# generated using pymatgen
data_Mn3H44C64S2(N5O8)2
_symmetry_space_group_name_H-M   'P 1'
_cell_length_a   12.78100000
_cell_length_b   14.16900000
_cell_length_c   21.58600000
_cell_angle_alpha   90.00000000
_cell_angle_beta   90.00000000
_cell_angle_gamma   114.17300000
_symmetry_Int_Tables_number   1
_chemical_formula_structural   Mn3H44C64S2(N5O8)2
_chemical_formula_sum   'Mn6 H88 C128 S4 N20 O32'
_cell_volume   3566.31877606
_cell_formula_units_Z   2
loop_
 _symmetry_equiv_pos_site_id
 _symmetry_equiv_pos_as_xyz
  1  'x, y, z'
loop_
 _atom_site_type_symbol
 _atom_site_label
 _atom_site_symmetry_multiplicity
 _atom_site_fract_x
 _atom_site_fract_y
 _atom_site_fract_z
 _atom_site_occupancy
 _atom_site_charge
  Mn  Mn1  1  0.694820  0.799780  0.513130  1.0  0.9928
  Mn  Mn2  1  0.805180  0.200220  0.013130  1.0  0.9943
  Mn  Mn3  1  0.305180  0.200220  0.486870  1.0  0.9943
  Mn  Mn4  1  0.194820  0.799780  0.986870  1.0  0.993
  Mn  Mn5  1  0.000000  0.000000  0.500000  1.0  1.1585
  Mn  Mn6  1  0.500000  0.000000  0.000000  1.0  1.1585
  H  H7  1  0.518000  0.885900  0.437300  1.0  0.0903
  H  H8  1  0.434000  0.657900  0.316200  1.0  0.1249
  H  H9  1  0.566500  0.640400  0.392200  1.0  0.1077
  H  H10  1  0.354400  0.903300  0.408400  1.0  0.11
  H  H11  1  0.261200  0.988800  0.357100  1.0  0.1024
  H  H12  1  0.282400  0.850400  0.198800  1.0  0.1073
  H  H13  1  0.386700  0.773200  0.248600  1.0  0.1082
  H  H14  1  0.117200  0.004600  0.316400  1.0  0.1125
  H  H15  1  0.026300  0.096300  0.270000  1.0  0.1175
  H  H16  1  0.169100  0.079000  0.107200  1.0  0.113
  H  H17  1  0.258300  0.985300  0.154000  1.0  0.1097
  H  H18  1  0.019700  0.250400  0.223800  1.0  0.1172
  H  H19  1  0.902500  0.295400  0.150300  1.0  0.1072
  H  H20  1  0.994400  0.095600  0.068400  1.0  0.0919
  H  H21  1  0.755200  0.607000  0.378400  1.0  0.1031
  H  H22  1  0.794600  0.495400  0.313200  1.0  0.111
  H  H23  1  0.128300  0.687700  0.315400  1.0  0.0994
  H  H24  1  0.086800  0.799700  0.379600  1.0  0.0927
  H  H25  1  0.855300  0.311000  0.315700  1.0  0.1111
  H  H26  1  0.893600  0.190500  0.373600  1.0  0.0926
  H  H27  1  0.230600  0.360500  0.355900  1.0  0.1017
  H  H28  1  0.193300  0.483600  0.300200  1.0  0.1088
  H  H29  1  0.982000  0.114100  0.937300  1.0  0.0909
  H  H30  1  0.066000  0.342100  0.816200  1.0  0.1251
  H  H31  1  0.933500  0.359600  0.892200  1.0  0.1075
  H  H32  1  0.145600  0.096700  0.908400  1.0  0.11
  H  H33  1  0.238800  0.011200  0.857100  1.0  0.1029
  H  H34  1  0.217600  0.149600  0.698800  1.0  0.1073
  H  H35  1  0.113300  0.226800  0.748600  1.0  0.1082
  H  H36  1  0.382800  0.995400  0.816400  1.0  0.1128
  H  H37  1  0.473700  0.903700  0.770000  1.0  0.1181
  H  H38  1  0.330900  0.921000  0.607200  1.0  0.1127
  H  H39  1  0.241700  0.014700  0.654000  1.0  0.11
  H  H40  1  0.480300  0.749600  0.723800  1.0  0.1173
  H  H41  1  0.597500  0.704600  0.650300  1.0  0.1075
  H  H42  1  0.505600  0.904400  0.568400  1.0  0.0918
  H  H43  1  0.744800  0.393000  0.878400  1.0  0.1031
  H  H44  1  0.705400  0.504600  0.813200  1.0  0.1111
  H  H45  1  0.371700  0.312300  0.815400  1.0  0.0992
  H  H46  1  0.413200  0.200300  0.879600  1.0  0.0929
  H  H47  1  0.644700  0.689000  0.815700  1.0  0.1111
  H  H48  1  0.606400  0.809500  0.873600  1.0  0.0925
  H  H49  1  0.269400  0.639500  0.855900  1.0  0.1023
  H  H50  1  0.306700  0.516400  0.800200  1.0  0.1087
  H  H51  1  0.482000  0.114100  0.562700  1.0  0.0911
  H  H52  1  0.566000  0.342100  0.683800  1.0  0.1247
  H  H53  1  0.433500  0.359600  0.607800  1.0  0.1075
  H  H54  1  0.645600  0.096700  0.591600  1.0  0.1094
  H  H55  1  0.738800  0.011200  0.642900  1.0  0.1028
  H  H56  1  0.717600  0.149600  0.801200  1.0  0.1069
  H  H57  1  0.613300  0.226800  0.751400  1.0  0.1078
  H  H58  1  0.882800  0.995400  0.683600  1.0  0.1129
  H  H59  1  0.973700  0.903700  0.730000  1.0  0.1172
  H  H60  1  0.830900  0.921000  0.892800  1.0  0.1126
  H  H61  1  0.741700  0.014700  0.846000  1.0  0.1099
  H  H62  1  0.980300  0.749600  0.776200  1.0  0.1166
  H  H63  1  0.097500  0.704600  0.849700  1.0  0.1077
  H  H64  1  0.005600  0.904400  0.931600  1.0  0.0918
  H  H65  1  0.244800  0.393000  0.621600  1.0  0.103
  H  H66  1  0.205400  0.504600  0.686800  1.0  0.1113
  H  H67  1  0.871700  0.312300  0.684600  1.0  0.0983
  H  H68  1  0.913200  0.200300  0.620400  1.0  0.0927
  H  H69  1  0.144700  0.689000  0.684300  1.0  0.1114
  H  H70  1  0.106400  0.809500  0.626400  1.0  0.0921
  H  H71  1  0.769400  0.639500  0.644100  1.0  0.1024
  H  H72  1  0.806700  0.516400  0.699800  1.0  0.1076
  H  H73  1  0.018000  0.885900  0.062700  1.0  0.0905
  H  H74  1  0.934000  0.657900  0.183800  1.0  0.1247
  H  H75  1  0.066500  0.640400  0.107800  1.0  0.1073
  H  H76  1  0.854400  0.903300  0.091600  1.0  0.1093
  H  H77  1  0.761200  0.988800  0.142900  1.0  0.1027
  H  H78  1  0.782400  0.850400  0.301200  1.0  0.107
  H  H79  1  0.886700  0.773200  0.251400  1.0  0.1083
  H  H80  1  0.617200  0.004600  0.183600  1.0  0.1126
  H  H81  1  0.526300  0.096300  0.230000  1.0  0.1173
  H  H82  1  0.669100  0.079000  0.392800  1.0  0.1122
  H  H83  1  0.758300  0.985300  0.346000  1.0  0.1101
  H  H84  1  0.519700  0.250400  0.276200  1.0  0.1166
  H  H85  1  0.402500  0.295400  0.349700  1.0  0.1074
  H  H86  1  0.494400  0.095600  0.431600  1.0  0.092
  H  H87  1  0.255200  0.607000  0.121600  1.0  0.1028
  H  H88  1  0.294600  0.495400  0.186800  1.0  0.1106
  H  H89  1  0.628300  0.687700  0.184600  1.0  0.0986
  H  H90  1  0.586800  0.799700  0.120400  1.0  0.0926
  H  H91  1  0.355300  0.311000  0.184300  1.0  0.1118
  H  H92  1  0.393600  0.190500  0.126400  1.0  0.0922
  H  H93  1  0.730600  0.360500  0.144100  1.0  0.1016
  H  H94  1  0.693300  0.483600  0.199800  1.0  0.108
  C  C95  1  0.514000  0.826800  0.416800  1.0  0.1619
  C  C96  1  0.466700  0.701700  0.349550  1.0  -0.1349
  C  C97  1  0.539900  0.692400  0.391830  1.0  0.0455
  C  C98  1  0.383600  0.832800  0.333150  1.0  0.1156
  C  C99  1  0.342900  0.895100  0.365810  1.0  -0.1636
  C  C100  1  0.285100  0.944800  0.335100  1.0  -0.0789
  C  C101  1  0.261900  0.930600  0.271960  1.0  0.0192
  C  C102  1  0.299300  0.863400  0.240630  1.0  -0.0741
  C  C103  1  0.360900  0.816000  0.270480  1.0  -0.1462
  C  C104  1  0.199900  0.986200  0.240740  1.0  0.0125
  C  C105  1  0.128400  0.019800  0.274320  1.0  -0.0799
  C  C106  1  0.074000  0.074900  0.246760  1.0  -0.1549
  C  C107  1  0.090600  0.098500  0.183930  1.0  0.1168
  C  C108  1  0.159000  0.064400  0.149370  1.0  -0.1662
  C  C109  1  0.212700  0.008500  0.177650  1.0  -0.0836
  C  C110  1  0.000600  0.224600  0.183770  1.0  -0.1386
  C  C111  1  0.936100  0.249300  0.142920  1.0  0.0434
  C  C112  1  0.985900  0.140000  0.097820  1.0  0.1669
  C  C113  1  0.891800  0.787800  0.427310  1.0  0.7048
  C  C114  1  0.917700  0.714870  0.385280  1.0  -0.1201
  C  C115  1  0.830100  0.623500  0.365490  1.0  -0.0269
  C  C116  1  0.853400  0.556400  0.326660  1.0  -0.0389
  C  C117  1  0.965100  0.581700  0.308390  1.0  -0.223
  C  C118  1  0.053300  0.671800  0.327820  1.0  -0.0322
  C  C119  1  0.028000  0.738400  0.366440  1.0  -0.0175
  C  C120  1  0.021400  0.408800  0.303150  1.0  -0.2117
  C  C121  1  0.930600  0.321300  0.324270  1.0  -0.0457
  C  C122  1  0.953900  0.249000  0.358510  1.0  -0.0285
  C  C123  1  0.065700  0.263100  0.370360  1.0  -0.1267
  C  C124  1  0.155200  0.350700  0.348260  1.0  -0.0273
  C  C125  1  0.133100  0.424400  0.314710  1.0  -0.0391
  C  C126  1  0.091300  0.183600  0.406640  1.0  0.6958
  C  C127  1  0.986000  0.173200  0.916800  1.0  0.1622
  C  C128  1  0.033300  0.298300  0.849550  1.0  -0.134
  C  C129  1  0.960100  0.307600  0.891830  1.0  0.0456
  C  C130  1  0.116400  0.167200  0.833150  1.0  0.1152
  C  C131  1  0.157100  0.104900  0.865810  1.0  -0.1622
  C  C132  1  0.214900  0.055200  0.835100  1.0  -0.0813
  C  C133  1  0.238100  0.069400  0.771960  1.0  0.0187
  C  C134  1  0.200700  0.136600  0.740630  1.0  -0.0759
  C  C135  1  0.139100  0.184000  0.770480  1.0  -0.1446
  C  C136  1  0.300100  0.013800  0.740740  1.0  0.0122
  C  C137  1  0.371600  0.980200  0.774320  1.0  -0.0797
  C  C138  1  0.426000  0.925100  0.746760  1.0  -0.1556
  C  C139  1  0.409400  0.901500  0.683930  1.0  0.1183
  C  C140  1  0.341000  0.935600  0.649370  1.0  -0.1657
  C  C141  1  0.287300  0.991500  0.677650  1.0  -0.0821
  C  C142  1  0.499400  0.775400  0.683770  1.0  -0.1387
  C  C143  1  0.563900  0.750700  0.642920  1.0  0.0434
  C  C144  1  0.514100  0.860000  0.597820  1.0  0.1675
  C  C145  1  0.608200  0.212200  0.927310  1.0  0.7032
  C  C146  1  0.582300  0.285130  0.885280  1.0  -0.1191
  C  C147  1  0.669900  0.376500  0.865490  1.0  -0.0252
  C  C148  1  0.646600  0.443600  0.826660  1.0  -0.0396
  C  C149  1  0.534900  0.418300  0.808390  1.0  -0.2232
  C  C150  1  0.446700  0.328200  0.827820  1.0  -0.0299
  C  C151  1  0.472000  0.261600  0.866440  1.0  -0.0183
  C  C152  1  0.478600  0.591200  0.803150  1.0  -0.2111
  C  C153  1  0.569400  0.678700  0.824270  1.0  -0.0457
  C  C154  1  0.546100  0.751000  0.858510  1.0  -0.0268
  C  C155  1  0.434300  0.736900  0.870360  1.0  -0.1269
  C  C156  1  0.344800  0.649300  0.848260  1.0  -0.0288
  C  C157  1  0.366900  0.575600  0.814710  1.0  -0.0394
  C  C158  1  0.408700  0.816400  0.906640  1.0  0.696
  C  C159  1  0.486000  0.173200  0.583200  1.0  0.1595
  C  C160  1  0.533300  0.298300  0.650450  1.0  -0.1342
  C  C161  1  0.460100  0.307600  0.608170  1.0  0.0459
  C  C162  1  0.616400  0.167200  0.666850  1.0  0.1146
  C  C163  1  0.657100  0.104900  0.634190  1.0  -0.1648
  C  C164  1  0.714900  0.055200  0.664900  1.0  -0.0823
  C  C165  1  0.738100  0.069400  0.728040  1.0  0.0194
  C  C166  1  0.700700  0.136600  0.759370  1.0  -0.074
  C  C167  1  0.639100  0.184000  0.729520  1.0  -0.1448
  C  C168  1  0.800100  0.013800  0.759260  1.0  0.0124
  C  C169  1  0.871600  0.980200  0.725680  1.0  -0.08
  C  C170  1  0.926000  0.925100  0.753240  1.0  -0.1556
  C  C171  1  0.909400  0.901500  0.816070  1.0  0.1189
  C  C172  1  0.841000  0.935600  0.850630  1.0  -0.1685
  C  C173  1  0.787300  0.991500  0.822350  1.0  -0.0814
  C  C174  1  0.999400  0.775400  0.816230  1.0  -0.1393
  C  C175  1  0.063900  0.750700  0.857080  1.0  0.0443
  C  C176  1  0.014100  0.860000  0.902180  1.0  0.1683
  C  C177  1  0.108200  0.212200  0.572690  1.0  0.7041
  C  C178  1  0.082300  0.285130  0.614720  1.0  -0.1235
  C  C179  1  0.169900  0.376500  0.634510  1.0  -0.0262
  C  C180  1  0.146600  0.443600  0.673340  1.0  -0.0386
  C  C181  1  0.034900  0.418300  0.691610  1.0  -0.2226
  C  C182  1  0.946700  0.328200  0.672180  1.0  -0.03
  C  C183  1  0.972000  0.261600  0.633560  1.0  -0.0187
  C  C184  1  0.978600  0.591200  0.696850  1.0  -0.2113
  C  C185  1  0.069400  0.678700  0.675730  1.0  -0.0451
  C  C186  1  0.046100  0.751000  0.641490  1.0  -0.0263
  C  C187  1  0.934300  0.736900  0.629640  1.0  -0.1255
  C  C188  1  0.844800  0.649300  0.651740  1.0  -0.0284
  C  C189  1  0.866900  0.575600  0.685290  1.0  -0.0391
  C  C190  1  0.908700  0.816400  0.593360  1.0  0.6966
  C  C191  1  0.014000  0.826800  0.083200  1.0  0.1595
  C  C192  1  0.966700  0.701700  0.150450  1.0  -0.1352
  C  C193  1  0.039900  0.692400  0.108170  1.0  0.0453
  C  C194  1  0.883600  0.832800  0.166850  1.0  0.1151
  C  C195  1  0.842900  0.895100  0.134190  1.0  -0.1634
  C  C196  1  0.785100  0.944800  0.164900  1.0  -0.0795
  C  C197  1  0.761900  0.930600  0.228040  1.0  0.0201
  C  C198  1  0.799300  0.863400  0.259370  1.0  -0.0739
  C  C199  1  0.860900  0.816000  0.229520  1.0  -0.1461
  C  C200  1  0.699900  0.986200  0.259260  1.0  0.0128
  C  C201  1  0.628400  0.019800  0.225680  1.0  -0.0802
  C  C202  1  0.574000  0.074900  0.253240  1.0  -0.1549
  C  C203  1  0.590600  0.098500  0.316070  1.0  0.1175
  C  C204  1  0.659000  0.064400  0.350630  1.0  -0.1665
  C  C205  1  0.712700  0.008500  0.322350  1.0  -0.0832
  C  C206  1  0.500600  0.224600  0.316230  1.0  -0.1386
  C  C207  1  0.436100  0.249300  0.357080  1.0  0.0433
  C  C208  1  0.485900  0.140000  0.402180  1.0  0.1682
  C  C209  1  0.391800  0.787800  0.072690  1.0  0.7057
  C  C210  1  0.417700  0.714870  0.114720  1.0  -0.1241
  C  C211  1  0.330100  0.623500  0.134510  1.0  -0.0262
  C  C212  1  0.353400  0.556400  0.173340  1.0  -0.0387
  C  C213  1  0.465100  0.581700  0.191610  1.0  -0.2221
  C  C214  1  0.553300  0.671800  0.172180  1.0  -0.0311
  C  C215  1  0.528000  0.738400  0.133560  1.0  -0.0193
  C  C216  1  0.521400  0.408800  0.196850  1.0  -0.2119
  C  C217  1  0.430600  0.321300  0.175730  1.0  -0.0444
  C  C218  1  0.453900  0.249000  0.141490  1.0  -0.0264
  C  C219  1  0.565700  0.263100  0.129640  1.0  -0.1265
  C  C220  1  0.655200  0.350700  0.151740  1.0  -0.0267
  C  C221  1  0.633100  0.424400  0.185290  1.0  -0.0399
  C  C222  1  0.591300  0.183600  0.093360  1.0  0.6959
  S  S223  1  0.995110  0.499400  0.256160  1.0  1.1225
  S  S224  1  0.504890  0.500600  0.756160  1.0  1.1225
  S  S225  1  0.004890  0.500600  0.743840  1.0  1.124
  S  S226  1  0.495110  0.499400  0.243840  1.0  1.1238
  N  N227  1  0.569100  0.771700  0.434220  1.0  -0.4104
  N  N228  1  0.450100  0.788090  0.365310  1.0  0.043
  N  N229  1  0.032800  0.154300  0.155120  1.0  0.039
  N  N230  1  0.927400  0.195610  0.088530  1.0  -0.4232
  N  N231  1  0.773400  0.033800  0.499040  1.0  0.1477
  N  N232  1  0.930900  0.228300  0.934220  1.0  -0.4137
  N  N233  1  0.049900  0.211910  0.865310  1.0  0.0429
  N  N234  1  0.467200  0.845700  0.655120  1.0  0.0371
  N  N235  1  0.572600  0.804390  0.588530  1.0  -0.4245
  N  N236  1  0.726600  0.966200  0.999040  1.0  0.1458
  N  N237  1  0.430900  0.228300  0.565780  1.0  -0.4132
  N  N238  1  0.549900  0.211910  0.634690  1.0  0.0422
  N  N239  1  0.967200  0.845700  0.844880  1.0  0.0373
  N  N240  1  0.072600  0.804390  0.911470  1.0  -0.4228
  N  N241  1  0.226600  0.966200  0.500960  1.0  0.1444
  N  N242  1  0.069100  0.771700  0.065780  1.0  -0.4126
  N  N243  1  0.950100  0.788090  0.134690  1.0  0.0426
  N  N244  1  0.532800  0.154300  0.344880  1.0  0.0384
  N  N245  1  0.427400  0.195610  0.411470  1.0  -0.4236
  N  N246  1  0.273400  0.033800  0.000960  1.0  0.1462
  O  O247  1  0.794710  0.754490  0.450120  1.0  -0.611
  O  O248  1  0.971100  0.875380  0.435530  1.0  -0.6193
  O  O249  1  0.892200  0.444170  0.221830  1.0  -0.554
  O  O250  1  0.099500  0.559770  0.224290  1.0  -0.5493
  O  O251  1  0.008380  0.106810  0.426030  1.0  -0.6034
  O  O252  1  0.194190  0.201250  0.412310  1.0  -0.6198
  O  O253  1  0.809550  0.963770  0.502300  1.0  -0.4241
  O  O254  1  0.672650  0.022050  0.497450  1.0  -0.3653
  O  O255  1  0.705290  0.245510  0.950120  1.0  -0.6101
  O  O256  1  0.528900  0.124620  0.935530  1.0  -0.6204
  O  O257  1  0.607800  0.555830  0.721830  1.0  -0.5542
  O  O258  1  0.400500  0.440230  0.724290  1.0  -0.5492
  O  O259  1  0.491620  0.893190  0.926030  1.0  -0.6029
  O  O260  1  0.305810  0.798750  0.912310  1.0  -0.619
  O  O261  1  0.690450  0.036230  0.002300  1.0  -0.4201
  O  O262  1  0.827350  0.977950  0.997450  1.0  -0.3757
  O  O263  1  0.205290  0.245510  0.549880  1.0  -0.6094
  O  O264  1  0.028900  0.124620  0.564470  1.0  -0.6196
  O  O265  1  0.107800  0.555830  0.778170  1.0  -0.5551
  O  O266  1  0.900500  0.440230  0.775710  1.0  -0.55
  O  O267  1  0.991620  0.893190  0.573970  1.0  -0.6039
  O  O268  1  0.805810  0.798750  0.587690  1.0  -0.6196
  O  O269  1  0.190450  0.036230  0.497700  1.0  -0.4209
  O  O270  1  0.327350  0.977950  0.502550  1.0  -0.3788
  O  O271  1  0.294710  0.754490  0.049880  1.0  -0.6105
  O  O272  1  0.471100  0.875380  0.064470  1.0  -0.619
  O  O273  1  0.392200  0.444170  0.278170  1.0  -0.5548
  O  O274  1  0.599500  0.559770  0.275710  1.0  -0.5494
  O  O275  1  0.508380  0.106810  0.073970  1.0  -0.6038
  O  O276  1  0.694190  0.201250  0.087690  1.0  -0.6199
  O  O277  1  0.309550  0.963770  0.997700  1.0  -0.4251
  O  O278  1  0.172650  0.022050  0.002550  1.0  -0.3673
