# generated using pymatgen
data_CrH2(C3O2)2
_symmetry_space_group_name_H-M   'P 1'
_cell_length_a   25.95570000
_cell_length_b   25.95570000
_cell_length_c   25.95570000
_cell_angle_alpha   90.00000000
_cell_angle_beta   90.00000000
_cell_angle_gamma   90.00000000
_symmetry_Int_Tables_number   1
_chemical_formula_structural   CrH2(C3O2)2
_chemical_formula_sum   'Cr48 H96 C288 O192'
_cell_volume   17486.31258728
_cell_formula_units_Z   48
loop_
 _symmetry_equiv_pos_site_id
 _symmetry_equiv_pos_as_xyz
  1  'x, y, z'
loop_
 _atom_site_type_symbol
 _atom_site_label
 _atom_site_symmetry_multiplicity
 _atom_site_fract_x
 _atom_site_fract_y
 _atom_site_fract_z
 _atom_site_occupancy
 _atom_site_charge
  Cr  Cr1  1  0.288000  0.288000  0.000000  1.0  1.1028
  Cr  Cr2  1  0.288000  0.788000  0.500000  1.0  1.1028
  Cr  Cr3  1  0.788000  0.288000  0.500000  1.0  1.1028
  Cr  Cr4  1  0.788000  0.788000  0.000000  1.0  1.1028
  Cr  Cr5  1  0.712000  0.712000  0.000000  1.0  1.1041
  Cr  Cr6  1  0.712000  0.212000  0.500000  1.0  1.1041
  Cr  Cr7  1  0.212000  0.712000  0.500000  1.0  1.1041
  Cr  Cr8  1  0.212000  0.212000  0.000000  1.0  1.1041
  Cr  Cr9  1  0.712000  0.288000  0.000000  1.0  1.1046
  Cr  Cr10  1  0.712000  0.788000  0.500000  1.0  1.1046
  Cr  Cr11  1  0.212000  0.288000  0.500000  1.0  1.1046
  Cr  Cr12  1  0.212000  0.788000  0.000000  1.0  1.1046
  Cr  Cr13  1  0.288000  0.712000  0.000000  1.0  1.1022
  Cr  Cr14  1  0.288000  0.212000  0.500000  1.0  1.1022
  Cr  Cr15  1  0.788000  0.712000  0.500000  1.0  1.1022
  Cr  Cr16  1  0.788000  0.212000  0.000000  1.0  1.1022
  Cr  Cr17  1  0.000000  0.288000  0.288000  1.0  1.102
  Cr  Cr18  1  0.000000  0.788000  0.788000  1.0  1.102
  Cr  Cr19  1  0.500000  0.288000  0.788000  1.0  1.102
  Cr  Cr20  1  0.500000  0.788000  0.288000  1.0  1.102
  Cr  Cr21  1  0.000000  0.712000  0.712000  1.0  1.1009
  Cr  Cr22  1  0.000000  0.212000  0.212000  1.0  1.1009
  Cr  Cr23  1  0.500000  0.712000  0.212000  1.0  1.1009
  Cr  Cr24  1  0.500000  0.212000  0.712000  1.0  1.1009
  Cr  Cr25  1  0.000000  0.712000  0.288000  1.0  1.1016
  Cr  Cr26  1  0.000000  0.212000  0.788000  1.0  1.1016
  Cr  Cr27  1  0.500000  0.712000  0.788000  1.0  1.1016
  Cr  Cr28  1  0.500000  0.212000  0.288000  1.0  1.1016
  Cr  Cr29  1  0.000000  0.288000  0.712000  1.0  1.1002
  Cr  Cr30  1  0.000000  0.788000  0.212000  1.0  1.1002
  Cr  Cr31  1  0.500000  0.288000  0.212000  1.0  1.1002
  Cr  Cr32  1  0.500000  0.788000  0.712000  1.0  1.1002
  Cr  Cr33  1  0.288000  0.000000  0.288000  1.0  1.1001
  Cr  Cr34  1  0.288000  0.500000  0.788000  1.0  1.1001
  Cr  Cr35  1  0.788000  0.000000  0.788000  1.0  1.1001
  Cr  Cr36  1  0.788000  0.500000  0.288000  1.0  1.1001
  Cr  Cr37  1  0.712000  0.000000  0.712000  1.0  1.1011
  Cr  Cr38  1  0.712000  0.500000  0.212000  1.0  1.1011
  Cr  Cr39  1  0.212000  0.000000  0.212000  1.0  1.1011
  Cr  Cr40  1  0.212000  0.500000  0.712000  1.0  1.1011
  Cr  Cr41  1  0.288000  0.000000  0.712000  1.0  1.0988
  Cr  Cr42  1  0.288000  0.500000  0.212000  1.0  1.0988
  Cr  Cr43  1  0.788000  0.000000  0.212000  1.0  1.0988
  Cr  Cr44  1  0.788000  0.500000  0.712000  1.0  1.0988
  Cr  Cr45  1  0.712000  0.000000  0.288000  1.0  1.1028
  Cr  Cr46  1  0.712000  0.500000  0.788000  1.0  1.1028
  Cr  Cr47  1  0.212000  0.000000  0.788000  1.0  1.1028
  Cr  Cr48  1  0.212000  0.500000  0.288000  1.0  1.1028
  H  H49  1  0.379210  0.233690  0.879210  1.0  0.1423
  H  H50  1  0.379210  0.733690  0.379210  1.0  0.1423
  H  H51  1  0.879210  0.733690  0.879210  1.0  0.1423
  H  H52  1  0.620790  0.766310  0.879210  1.0  0.1422
  H  H53  1  0.620790  0.266310  0.379210  1.0  0.1422
  H  H54  1  0.620790  0.233690  0.120790  1.0  0.1419
  H  H55  1  0.620790  0.733690  0.620790  1.0  0.1419
  H  H56  1  0.379210  0.766310  0.120790  1.0  0.1419
  H  H57  1  0.379210  0.266310  0.620790  1.0  0.1419
  H  H58  1  0.879210  0.766310  0.620790  1.0  0.1419
  H  H59  1  0.879210  0.379210  0.233690  1.0  0.1423
  H  H60  1  0.879210  0.879210  0.733690  1.0  0.1423
  H  H61  1  0.879210  0.620790  0.766310  1.0  0.1418
  H  H62  1  0.879210  0.120790  0.266310  1.0  0.1418
  H  H63  1  0.120790  0.620790  0.233690  1.0  0.1419
  H  H64  1  0.120790  0.120790  0.733690  1.0  0.1419
  H  H65  1  0.620790  0.620790  0.733690  1.0  0.1419
  H  H66  1  0.120790  0.379210  0.766310  1.0  0.1418
  H  H67  1  0.120790  0.879210  0.266310  1.0  0.1418
  H  H68  1  0.620790  0.879210  0.766310  1.0  0.1418
  H  H69  1  0.233690  0.879210  0.379210  1.0  0.1421
  H  H70  1  0.733690  0.879210  0.879210  1.0  0.1421
  H  H71  1  0.766310  0.879210  0.620790  1.0  0.1417
  H  H72  1  0.266310  0.879210  0.120790  1.0  0.1417
  H  H73  1  0.233690  0.120790  0.620790  1.0  0.1414
  H  H74  1  0.733690  0.120790  0.120790  1.0  0.1414
  H  H75  1  0.733690  0.620790  0.620790  1.0  0.1414
  H  H76  1  0.766310  0.120790  0.379210  1.0  0.1418
  H  H77  1  0.766310  0.620790  0.879210  1.0  0.1418
  H  H78  1  0.266310  0.120790  0.879210  1.0  0.1418
  H  H79  1  0.233690  0.379210  0.120790  1.0  0.1418
  H  H80  1  0.233690  0.879210  0.620790  1.0  0.1418
  H  H81  1  0.733690  0.379210  0.620790  1.0  0.1418
  H  H82  1  0.766310  0.620790  0.120790  1.0  0.1414
  H  H83  1  0.266310  0.620790  0.620790  1.0  0.1414
  H  H84  1  0.233690  0.620790  0.879210  1.0  0.1417
  H  H85  1  0.733690  0.620790  0.379210  1.0  0.1417
  H  H86  1  0.766310  0.379210  0.879210  1.0  0.142
  H  H87  1  0.266310  0.379210  0.379210  1.0  0.142
  H  H88  1  0.266310  0.879210  0.879210  1.0  0.142
  H  H89  1  0.379210  0.879210  0.766310  1.0  0.1421
  H  H90  1  0.379210  0.379210  0.266310  1.0  0.1421
  H  H91  1  0.879210  0.879210  0.266310  1.0  0.1421
  H  H92  1  0.620790  0.879210  0.233690  1.0  0.1422
  H  H93  1  0.620790  0.379210  0.733690  1.0  0.1422
  H  H94  1  0.620790  0.120790  0.766310  1.0  0.1416
  H  H95  1  0.620790  0.620790  0.266310  1.0  0.1416
  H  H96  1  0.379210  0.120790  0.233690  1.0  0.1417
  H  H97  1  0.379210  0.620790  0.733690  1.0  0.1417
  H  H98  1  0.879210  0.620790  0.233690  1.0  0.1417
  H  H99  1  0.879210  0.233690  0.620790  1.0  0.1421
  H  H100  1  0.879210  0.733690  0.120790  1.0  0.1421
  H  H101  1  0.879210  0.766310  0.379210  1.0  0.142
  H  H102  1  0.879210  0.266310  0.879210  1.0  0.142
  H  H103  1  0.120790  0.233690  0.379210  1.0  0.1422
  H  H104  1  0.120790  0.733690  0.879210  1.0  0.1422
  H  H105  1  0.620790  0.233690  0.879210  1.0  0.1422
  H  H106  1  0.120790  0.766310  0.620790  1.0  0.1416
  H  H107  1  0.120790  0.266310  0.120790  1.0  0.1416
  H  H108  1  0.620790  0.266310  0.620790  1.0  0.1416
  H  H109  1  0.620790  0.766310  0.120790  1.0  0.1416
  H  H110  1  0.379210  0.233690  0.120790  1.0  0.1421
  H  H111  1  0.379210  0.733690  0.620790  1.0  0.1421
  H  H112  1  0.379210  0.766310  0.879210  1.0  0.142
  H  H113  1  0.379210  0.266310  0.379210  1.0  0.142
  H  H114  1  0.620790  0.733690  0.379210  1.0  0.1422
  H  H115  1  0.120790  0.620790  0.766310  1.0  0.1416
  H  H116  1  0.120790  0.120790  0.266310  1.0  0.1416
  H  H117  1  0.120790  0.379210  0.233690  1.0  0.1422
  H  H118  1  0.120790  0.879210  0.733690  1.0  0.1422
  H  H119  1  0.879210  0.379210  0.766310  1.0  0.1421
  H  H120  1  0.879210  0.120790  0.733690  1.0  0.1417
  H  H121  1  0.766310  0.120790  0.620790  1.0  0.1414
  H  H122  1  0.266310  0.120790  0.120790  1.0  0.1414
  H  H123  1  0.233690  0.120790  0.379210  1.0  0.1417
  H  H124  1  0.733690  0.120790  0.879210  1.0  0.1417
  H  H125  1  0.766310  0.879210  0.379210  1.0  0.142
  H  H126  1  0.733690  0.879210  0.120790  1.0  0.1418
  H  H127  1  0.266310  0.620790  0.379210  1.0  0.1418
  H  H128  1  0.233690  0.379210  0.879210  1.0  0.1421
  H  H129  1  0.733690  0.379210  0.379210  1.0  0.1421
  H  H130  1  0.766310  0.379210  0.120790  1.0  0.1417
  H  H131  1  0.266310  0.379210  0.620790  1.0  0.1417
  H  H132  1  0.233690  0.620790  0.120790  1.0  0.1414
  H  H133  1  0.620790  0.120790  0.233690  1.0  0.1419
  H  H134  1  0.379210  0.120790  0.766310  1.0  0.1418
  H  H135  1  0.379210  0.620790  0.266310  1.0  0.1418
  H  H136  1  0.379210  0.879210  0.233690  1.0  0.1423
  H  H137  1  0.379210  0.379210  0.733690  1.0  0.1423
  H  H138  1  0.620790  0.379210  0.266310  1.0  0.1418
  H  H139  1  0.120790  0.766310  0.379210  1.0  0.1422
  H  H140  1  0.120790  0.266310  0.879210  1.0  0.1422
  H  H141  1  0.120790  0.233690  0.620790  1.0  0.1419
  H  H142  1  0.120790  0.733690  0.120790  1.0  0.1419
  H  H143  1  0.879210  0.266310  0.120790  1.0  0.1419
  H  H144  1  0.879210  0.233690  0.379210  1.0  0.1423
  C  C145  1  0.296710  0.203290  0.929150  1.0  0.5227
  C  C146  1  0.322240  0.177760  0.885960  1.0  -0.0788
  C  C147  1  0.296710  0.703290  0.429150  1.0  0.5227
  C  C148  1  0.322240  0.677760  0.385960  1.0  -0.0788
  C  C149  1  0.703290  0.796710  0.929150  1.0  0.5224
  C  C150  1  0.677760  0.822240  0.885960  1.0  -0.0787
  C  C151  1  0.703290  0.296710  0.429150  1.0  0.5224
  C  C152  1  0.677760  0.322240  0.385960  1.0  -0.0787
  C  C153  1  0.203290  0.296710  0.929150  1.0  0.5224
  C  C154  1  0.177760  0.322240  0.885960  1.0  -0.0787
  C  C155  1  0.703290  0.203290  0.070850  1.0  0.525
  C  C156  1  0.677760  0.177760  0.114040  1.0  -0.0774
  C  C157  1  0.703290  0.703290  0.570850  1.0  0.525
  C  C158  1  0.677760  0.677760  0.614040  1.0  -0.0774
  C  C159  1  0.203290  0.203290  0.570850  1.0  0.525
  C  C160  1  0.177760  0.177760  0.614040  1.0  -0.0774
  C  C161  1  0.296710  0.796710  0.070850  1.0  0.5241
  C  C162  1  0.322240  0.822240  0.114040  1.0  -0.0772
  C  C163  1  0.296710  0.296710  0.570850  1.0  0.5241
  C  C164  1  0.322240  0.322240  0.614040  1.0  -0.0772
  C  C165  1  0.929150  0.296710  0.203290  1.0  0.5228
  C  C166  1  0.885960  0.322240  0.177760  1.0  -0.0789
  C  C167  1  0.429150  0.296710  0.703290  1.0  0.5228
  C  C168  1  0.385960  0.322240  0.677760  1.0  -0.0789
  C  C169  1  0.929150  0.703290  0.796710  1.0  0.5234
  C  C170  1  0.885960  0.677760  0.822240  1.0  -0.0791
  C  C171  1  0.929150  0.203290  0.296710  1.0  0.5234
  C  C172  1  0.885960  0.177760  0.322240  1.0  -0.0791
  C  C173  1  0.429150  0.703290  0.296710  1.0  0.5234
  C  C174  1  0.385960  0.677760  0.322240  1.0  -0.0791
  C  C175  1  0.070850  0.703290  0.203290  1.0  0.5211
  C  C176  1  0.114040  0.677760  0.177760  1.0  -0.0801
  C  C177  1  0.570850  0.703290  0.703290  1.0  0.5211
  C  C178  1  0.614040  0.677760  0.677760  1.0  -0.0801
  C  C179  1  0.570850  0.203290  0.203290  1.0  0.5211
  C  C180  1  0.614040  0.177760  0.177760  1.0  -0.0801
  C  C181  1  0.070850  0.296710  0.796710  1.0  0.5209
  C  C182  1  0.114040  0.322240  0.822240  1.0  -0.08
  C  C183  1  0.570850  0.296710  0.296710  1.0  0.5209
  C  C184  1  0.614040  0.322240  0.322240  1.0  -0.08
  C  C185  1  0.203290  0.929150  0.296710  1.0  0.5196
  C  C186  1  0.177760  0.885960  0.322240  1.0  -0.0786
  C  C187  1  0.203290  0.429150  0.796710  1.0  0.5196
  C  C188  1  0.177760  0.385960  0.822240  1.0  -0.0786
  C  C189  1  0.796710  0.929150  0.703290  1.0  0.5188
  C  C190  1  0.822240  0.885960  0.677760  1.0  -0.0789
  C  C191  1  0.796710  0.429150  0.203290  1.0  0.5188
  C  C192  1  0.822240  0.385960  0.177760  1.0  -0.0789
  C  C193  1  0.296710  0.929150  0.203290  1.0  0.5188
  C  C194  1  0.322240  0.885960  0.177760  1.0  -0.0789
  C  C195  1  0.203290  0.070850  0.703290  1.0  0.5198
  C  C196  1  0.177760  0.114040  0.677760  1.0  -0.0779
  C  C197  1  0.203290  0.570850  0.203290  1.0  0.5198
  C  C198  1  0.177760  0.614040  0.177760  1.0  -0.0779
  C  C199  1  0.796710  0.070850  0.296710  1.0  0.5199
  C  C200  1  0.822240  0.114040  0.322240  1.0  -0.0785
  C  C201  1  0.796710  0.570850  0.796710  1.0  0.5199
  C  C202  1  0.822240  0.614040  0.822240  1.0  -0.0785
  C  C203  1  0.296710  0.570850  0.296710  1.0  0.5199
  C  C204  1  0.322240  0.614040  0.322240  1.0  -0.0785
  C  C205  1  0.203290  0.296710  0.070850  1.0  0.5247
  C  C206  1  0.177760  0.322240  0.114040  1.0  -0.0771
  C  C207  1  0.203290  0.796710  0.570850  1.0  0.5247
  C  C208  1  0.177760  0.822240  0.614040  1.0  -0.0771
  C  C209  1  0.796710  0.703290  0.070850  1.0  0.5244
  C  C210  1  0.822240  0.677760  0.114040  1.0  -0.0776
  C  C211  1  0.796710  0.203290  0.570850  1.0  0.5244
  C  C212  1  0.822240  0.177760  0.614040  1.0  -0.0776
  C  C213  1  0.296710  0.203290  0.070850  1.0  0.5244
  C  C214  1  0.322240  0.177760  0.114040  1.0  -0.0776
  C  C215  1  0.203290  0.703290  0.929150  1.0  0.523
  C  C216  1  0.177760  0.677760  0.885960  1.0  -0.0787
  C  C217  1  0.203290  0.203290  0.429150  1.0  0.523
  C  C218  1  0.177760  0.177760  0.385960  1.0  -0.0787
  C  C219  1  0.796710  0.296710  0.929150  1.0  0.5222
  C  C220  1  0.822240  0.322240  0.885960  1.0  -0.0789
  C  C221  1  0.796710  0.796710  0.429150  1.0  0.5222
  C  C222  1  0.822240  0.822240  0.385960  1.0  -0.0789
  C  C223  1  0.296710  0.296710  0.429150  1.0  0.5222
  C  C224  1  0.322240  0.322240  0.385960  1.0  -0.0789
  C  C225  1  0.296710  0.929150  0.796710  1.0  0.5192
  C  C226  1  0.322240  0.885960  0.822240  1.0  -0.0789
  C  C227  1  0.296710  0.429150  0.296710  1.0  0.5192
  C  C228  1  0.322240  0.385960  0.322240  1.0  -0.0789
  C  C229  1  0.703290  0.929150  0.203290  1.0  0.5193
  C  C230  1  0.677760  0.885960  0.177760  1.0  -0.0786
  C  C231  1  0.703290  0.429150  0.703290  1.0  0.5193
  C  C232  1  0.677760  0.385960  0.677760  1.0  -0.0786
  C  C233  1  0.203290  0.429150  0.203290  1.0  0.5193
  C  C234  1  0.177760  0.385960  0.177760  1.0  -0.0786
  C  C235  1  0.703290  0.070850  0.796710  1.0  0.5201
  C  C236  1  0.677760  0.114040  0.822240  1.0  -0.0782
  C  C237  1  0.703290  0.570850  0.296710  1.0  0.5201
  C  C238  1  0.677760  0.614040  0.322240  1.0  -0.0782
  C  C239  1  0.203290  0.070850  0.296710  1.0  0.5201
  C  C240  1  0.177760  0.114040  0.322240  1.0  -0.0782
  C  C241  1  0.296710  0.070850  0.203290  1.0  0.5195
  C  C242  1  0.322240  0.114040  0.177760  1.0  -0.0782
  C  C243  1  0.296710  0.570850  0.703290  1.0  0.5195
  C  C244  1  0.322240  0.614040  0.677760  1.0  -0.0782
  C  C245  1  0.929150  0.203290  0.703290  1.0  0.5234
  C  C246  1  0.885960  0.177760  0.677760  1.0  -0.079
  C  C247  1  0.429150  0.203290  0.203290  1.0  0.5234
  C  C248  1  0.385960  0.177760  0.177760  1.0  -0.079
  C  C249  1  0.929150  0.796710  0.296710  1.0  0.5229
  C  C250  1  0.885960  0.822240  0.322240  1.0  -0.079
  C  C251  1  0.429150  0.796710  0.796710  1.0  0.5229
  C  C252  1  0.385960  0.822240  0.822240  1.0  -0.079
  C  C253  1  0.429150  0.296710  0.296710  1.0  0.5229
  C  C254  1  0.385960  0.322240  0.322240  1.0  -0.079
  C  C255  1  0.070850  0.203290  0.296710  1.0  0.5213
  C  C256  1  0.114040  0.177760  0.322240  1.0  -0.0802
  C  C257  1  0.570850  0.203290  0.796710  1.0  0.5213
  C  C258  1  0.614040  0.177760  0.822240  1.0  -0.0802
  C  C259  1  0.070850  0.796710  0.703290  1.0  0.5206
  C  C260  1  0.114040  0.822240  0.677760  1.0  -0.08
  C  C261  1  0.070850  0.296710  0.203290  1.0  0.5206
  C  C262  1  0.114040  0.322240  0.177760  1.0  -0.08
  C  C263  1  0.570850  0.796710  0.203290  1.0  0.5206
  C  C264  1  0.614040  0.822240  0.177760  1.0  -0.08
  C  C265  1  0.703290  0.796710  0.070850  1.0  0.5247
  C  C266  1  0.677760  0.822240  0.114040  1.0  -0.0771
  C  C267  1  0.703290  0.296710  0.570850  1.0  0.5247
  C  C268  1  0.677760  0.322240  0.614040  1.0  -0.0771
  C  C269  1  0.296710  0.703290  0.570850  1.0  0.5244
  C  C270  1  0.322240  0.677760  0.614040  1.0  -0.0776
  C  C271  1  0.296710  0.796710  0.929150  1.0  0.5222
  C  C272  1  0.322240  0.822240  0.885960  1.0  -0.0789
  C  C273  1  0.703290  0.203290  0.929150  1.0  0.523
  C  C274  1  0.677760  0.177760  0.885960  1.0  -0.0787
  C  C275  1  0.703290  0.703290  0.429150  1.0  0.523
  C  C276  1  0.677760  0.677760  0.385960  1.0  -0.0787
  C  C277  1  0.070850  0.703290  0.796710  1.0  0.5213
  C  C278  1  0.114040  0.677760  0.822240  1.0  -0.0802
  C  C279  1  0.570850  0.703290  0.296710  1.0  0.5213
  C  C280  1  0.614040  0.677760  0.322240  1.0  -0.0802
  C  C281  1  0.570850  0.296710  0.703290  1.0  0.5206
  C  C282  1  0.614040  0.322240  0.677760  1.0  -0.08
  C  C283  1  0.929150  0.296710  0.796710  1.0  0.5229
  C  C284  1  0.885960  0.322240  0.822240  1.0  -0.079
  C  C285  1  0.929150  0.703290  0.203290  1.0  0.5234
  C  C286  1  0.885960  0.677760  0.177760  1.0  -0.079
  C  C287  1  0.429150  0.703290  0.703290  1.0  0.5234
  C  C288  1  0.385960  0.677760  0.677760  1.0  -0.079
  C  C289  1  0.796710  0.070850  0.703290  1.0  0.5195
  C  C290  1  0.822240  0.114040  0.677760  1.0  -0.0782
  C  C291  1  0.796710  0.570850  0.203290  1.0  0.5195
  C  C292  1  0.822240  0.614040  0.177760  1.0  -0.0782
  C  C293  1  0.203290  0.570850  0.796710  1.0  0.5201
  C  C294  1  0.177760  0.614040  0.822240  1.0  -0.0782
  C  C295  1  0.796710  0.929150  0.296710  1.0  0.5192
  C  C296  1  0.822240  0.885960  0.322240  1.0  -0.0789
  C  C297  1  0.796710  0.429150  0.796710  1.0  0.5192
  C  C298  1  0.822240  0.385960  0.822240  1.0  -0.0789
  C  C299  1  0.203290  0.929150  0.703290  1.0  0.5193
  C  C300  1  0.177760  0.885960  0.677760  1.0  -0.0786
  C  C301  1  0.796710  0.703290  0.929150  1.0  0.5227
  C  C302  1  0.822240  0.677760  0.885960  1.0  -0.0788
  C  C303  1  0.796710  0.203290  0.429150  1.0  0.5227
  C  C304  1  0.822240  0.177760  0.385960  1.0  -0.0788
  C  C305  1  0.203290  0.796710  0.429150  1.0  0.5224
  C  C306  1  0.177760  0.822240  0.385960  1.0  -0.0787
  C  C307  1  0.796710  0.296710  0.070850  1.0  0.5241
  C  C308  1  0.822240  0.322240  0.114040  1.0  -0.0772
  C  C309  1  0.796710  0.796710  0.570850  1.0  0.5241
  C  C310  1  0.822240  0.822240  0.614040  1.0  -0.0772
  C  C311  1  0.203290  0.703290  0.070850  1.0  0.525
  C  C312  1  0.177760  0.677760  0.114040  1.0  -0.0774
  C  C313  1  0.703290  0.070850  0.203290  1.0  0.5198
  C  C314  1  0.677760  0.114040  0.177760  1.0  -0.0779
  C  C315  1  0.703290  0.570850  0.703290  1.0  0.5198
  C  C316  1  0.677760  0.614040  0.677760  1.0  -0.0779
  C  C317  1  0.296710  0.070850  0.796710  1.0  0.5199
  C  C318  1  0.322240  0.114040  0.822240  1.0  -0.0785
  C  C319  1  0.296710  0.429150  0.703290  1.0  0.5188
  C  C320  1  0.322240  0.385960  0.677760  1.0  -0.0789
  C  C321  1  0.703290  0.929150  0.796710  1.0  0.5196
  C  C322  1  0.677760  0.885960  0.822240  1.0  -0.0786
  C  C323  1  0.703290  0.429150  0.296710  1.0  0.5196
  C  C324  1  0.677760  0.385960  0.322240  1.0  -0.0786
  C  C325  1  0.070850  0.796710  0.296710  1.0  0.5209
  C  C326  1  0.114040  0.822240  0.322240  1.0  -0.08
  C  C327  1  0.570850  0.796710  0.796710  1.0  0.5209
  C  C328  1  0.614040  0.822240  0.822240  1.0  -0.08
  C  C329  1  0.070850  0.203290  0.703290  1.0  0.5211
  C  C330  1  0.114040  0.177760  0.677760  1.0  -0.0801
  C  C331  1  0.929150  0.796710  0.703290  1.0  0.5228
  C  C332  1  0.885960  0.822240  0.677760  1.0  -0.0789
  C  C333  1  0.429150  0.796710  0.203290  1.0  0.5228
  C  C334  1  0.385960  0.822240  0.177760  1.0  -0.0789
  C  C335  1  0.429150  0.203290  0.796710  1.0  0.5234
  C  C336  1  0.385960  0.177760  0.822240  1.0  -0.0791
  C  C337  1  0.364610  0.200560  0.864610  1.0  -0.0506
  C  C338  1  0.364610  0.700560  0.364610  1.0  -0.0506
  C  C339  1  0.864610  0.700560  0.864610  1.0  -0.0506
  C  C340  1  0.635390  0.799440  0.864610  1.0  -0.0498
  C  C341  1  0.635390  0.299440  0.364610  1.0  -0.0498
  C  C342  1  0.635390  0.200560  0.135390  1.0  -0.0512
  C  C343  1  0.635390  0.700560  0.635390  1.0  -0.0512
  C  C344  1  0.364610  0.799440  0.135390  1.0  -0.05
  C  C345  1  0.364610  0.299440  0.635390  1.0  -0.05
  C  C346  1  0.864610  0.799440  0.635390  1.0  -0.05
  C  C347  1  0.864610  0.364610  0.200560  1.0  -0.0491
  C  C348  1  0.864610  0.864610  0.700560  1.0  -0.0491
  C  C349  1  0.864610  0.635390  0.799440  1.0  -0.0495
  C  C350  1  0.864610  0.135390  0.299440  1.0  -0.0495
  C  C351  1  0.135390  0.635390  0.200560  1.0  -0.0494
  C  C352  1  0.135390  0.135390  0.700560  1.0  -0.0494
  C  C353  1  0.635390  0.635390  0.700560  1.0  -0.0494
  C  C354  1  0.135390  0.364610  0.799440  1.0  -0.0501
  C  C355  1  0.135390  0.864610  0.299440  1.0  -0.0501
  C  C356  1  0.635390  0.864610  0.799440  1.0  -0.0501
  C  C357  1  0.200560  0.864610  0.364610  1.0  -0.0497
  C  C358  1  0.700560  0.864610  0.864610  1.0  -0.0497
  C  C359  1  0.799440  0.864610  0.635390  1.0  -0.0502
  C  C360  1  0.299440  0.864610  0.135390  1.0  -0.0502
  C  C361  1  0.200560  0.135390  0.635390  1.0  -0.0502
  C  C362  1  0.700560  0.135390  0.135390  1.0  -0.0502
  C  C363  1  0.700560  0.635390  0.635390  1.0  -0.0502
  C  C364  1  0.799440  0.135390  0.364610  1.0  -0.0492
  C  C365  1  0.799440  0.635390  0.864610  1.0  -0.0492
  C  C366  1  0.299440  0.135390  0.864610  1.0  -0.0492
  C  C367  1  0.200560  0.364610  0.135390  1.0  -0.0499
  C  C368  1  0.200560  0.864610  0.635390  1.0  -0.0499
  C  C369  1  0.700560  0.364610  0.635390  1.0  -0.0499
  C  C370  1  0.799440  0.635390  0.135390  1.0  -0.05
  C  C371  1  0.299440  0.635390  0.635390  1.0  -0.05
  C  C372  1  0.200560  0.635390  0.864610  1.0  -0.0491
  C  C373  1  0.700560  0.635390  0.364610  1.0  -0.0491
  C  C374  1  0.799440  0.364610  0.864610  1.0  -0.0501
  C  C375  1  0.299440  0.364610  0.364610  1.0  -0.0501
  C  C376  1  0.299440  0.864610  0.864610  1.0  -0.0501
  C  C377  1  0.364610  0.864610  0.799440  1.0  -0.0492
  C  C378  1  0.364610  0.364610  0.299440  1.0  -0.0492
  C  C379  1  0.864610  0.864610  0.299440  1.0  -0.0492
  C  C380  1  0.635390  0.864610  0.200560  1.0  -0.0502
  C  C381  1  0.635390  0.364610  0.700560  1.0  -0.0502
  C  C382  1  0.635390  0.135390  0.799440  1.0  -0.05
  C  C383  1  0.635390  0.635390  0.299440  1.0  -0.05
  C  C384  1  0.364610  0.135390  0.200560  1.0  -0.0489
  C  C385  1  0.364610  0.635390  0.700560  1.0  -0.0489
  C  C386  1  0.864610  0.635390  0.200560  1.0  -0.0489
  C  C387  1  0.864610  0.200560  0.635390  1.0  -0.0507
  C  C388  1  0.864610  0.700560  0.135390  1.0  -0.0507
  C  C389  1  0.864610  0.799440  0.364610  1.0  -0.0489
  C  C390  1  0.864610  0.299440  0.864610  1.0  -0.0489
  C  C391  1  0.135390  0.200560  0.364610  1.0  -0.0514
  C  C392  1  0.135390  0.700560  0.864610  1.0  -0.0514
  C  C393  1  0.635390  0.200560  0.864610  1.0  -0.0514
  C  C394  1  0.135390  0.799440  0.635390  1.0  -0.0505
  C  C395  1  0.135390  0.299440  0.135390  1.0  -0.0505
  C  C396  1  0.635390  0.299440  0.635390  1.0  -0.0505
  C  C397  1  0.635390  0.799440  0.135390  1.0  -0.0505
  C  C398  1  0.364610  0.200560  0.135390  1.0  -0.0507
  C  C399  1  0.364610  0.700560  0.635390  1.0  -0.0507
  C  C400  1  0.364610  0.799440  0.864610  1.0  -0.0489
  C  C401  1  0.364610  0.299440  0.364610  1.0  -0.0489
  C  C402  1  0.635390  0.700560  0.364610  1.0  -0.0514
  C  C403  1  0.135390  0.635390  0.799440  1.0  -0.05
  C  C404  1  0.135390  0.135390  0.299440  1.0  -0.05
  C  C405  1  0.135390  0.364610  0.200560  1.0  -0.0502
  C  C406  1  0.135390  0.864610  0.700560  1.0  -0.0502
  C  C407  1  0.864610  0.364610  0.799440  1.0  -0.0492
  C  C408  1  0.864610  0.135390  0.700560  1.0  -0.0489
  C  C409  1  0.799440  0.135390  0.635390  1.0  -0.05
  C  C410  1  0.299440  0.135390  0.135390  1.0  -0.05
  C  C411  1  0.200560  0.135390  0.364610  1.0  -0.0491
  C  C412  1  0.700560  0.135390  0.864610  1.0  -0.0491
  C  C413  1  0.799440  0.864610  0.364610  1.0  -0.0501
  C  C414  1  0.700560  0.864610  0.135390  1.0  -0.0499
  C  C415  1  0.299440  0.635390  0.364610  1.0  -0.0492
  C  C416  1  0.200560  0.364610  0.864610  1.0  -0.0497
  C  C417  1  0.700560  0.364610  0.364610  1.0  -0.0497
  C  C418  1  0.799440  0.364610  0.135390  1.0  -0.0502
  C  C419  1  0.299440  0.364610  0.635390  1.0  -0.0502
  C  C420  1  0.200560  0.635390  0.135390  1.0  -0.0502
  C  C421  1  0.635390  0.135390  0.200560  1.0  -0.0494
  C  C422  1  0.364610  0.135390  0.799440  1.0  -0.0495
  C  C423  1  0.364610  0.635390  0.299440  1.0  -0.0495
  C  C424  1  0.364610  0.864610  0.200560  1.0  -0.0491
  C  C425  1  0.364610  0.364610  0.700560  1.0  -0.0491
  C  C426  1  0.635390  0.364610  0.299440  1.0  -0.0501
  C  C427  1  0.135390  0.799440  0.364610  1.0  -0.0498
  C  C428  1  0.135390  0.299440  0.864610  1.0  -0.0498
  C  C429  1  0.135390  0.200560  0.635390  1.0  -0.0512
  C  C430  1  0.135390  0.700560  0.135390  1.0  -0.0512
  C  C431  1  0.864610  0.299440  0.135390  1.0  -0.05
  C  C432  1  0.864610  0.200560  0.364610  1.0  -0.0506
  O  O433  1  0.319800  0.248100  0.942800  1.0  -0.5436
  O  O434  1  0.319800  0.748100  0.442800  1.0  -0.5436
  O  O435  1  0.819800  0.248100  0.442800  1.0  -0.5436
  O  O436  1  0.819800  0.748100  0.942800  1.0  -0.5436
  O  O437  1  0.680200  0.751900  0.942800  1.0  -0.5426
  O  O438  1  0.680200  0.251900  0.442800  1.0  -0.5426
  O  O439  1  0.180200  0.751900  0.442800  1.0  -0.5426
  O  O440  1  0.180200  0.251900  0.942800  1.0  -0.5426
  O  O441  1  0.680200  0.248100  0.057200  1.0  -0.5446
  O  O442  1  0.680200  0.748100  0.557200  1.0  -0.5444
  O  O443  1  0.180200  0.248100  0.557200  1.0  -0.5446
  O  O444  1  0.180200  0.748100  0.057200  1.0  -0.5445
  O  O445  1  0.319800  0.751900  0.057200  1.0  -0.543
  O  O446  1  0.319800  0.251900  0.557200  1.0  -0.543
  O  O447  1  0.819800  0.751900  0.557200  1.0  -0.543
  O  O448  1  0.819800  0.251900  0.057200  1.0  -0.543
  O  O449  1  0.942800  0.319800  0.248100  1.0  -0.5433
  O  O450  1  0.942800  0.819800  0.748100  1.0  -0.5433
  O  O451  1  0.442800  0.319800  0.748100  1.0  -0.5433
  O  O452  1  0.442800  0.819800  0.248100  1.0  -0.5433
  O  O453  1  0.942800  0.680200  0.751900  1.0  -0.542
  O  O454  1  0.942800  0.180200  0.251900  1.0  -0.542
  O  O455  1  0.442800  0.680200  0.251900  1.0  -0.542
  O  O456  1  0.442800  0.180200  0.751900  1.0  -0.542
  O  O457  1  0.057200  0.680200  0.248100  1.0  -0.5426
  O  O458  1  0.057200  0.180200  0.748100  1.0  -0.5426
  O  O459  1  0.557200  0.680200  0.748100  1.0  -0.5428
  O  O460  1  0.557200  0.180200  0.248100  1.0  -0.5426
  O  O461  1  0.057200  0.319800  0.751900  1.0  -0.544
  O  O462  1  0.057200  0.819800  0.251900  1.0  -0.5441
  O  O463  1  0.557200  0.319800  0.251900  1.0  -0.5438
  O  O464  1  0.557200  0.819800  0.751900  1.0  -0.544
  O  O465  1  0.248100  0.942800  0.319800  1.0  -0.5428
  O  O466  1  0.248100  0.442800  0.819800  1.0  -0.5428
  O  O467  1  0.748100  0.942800  0.819800  1.0  -0.5428
  O  O468  1  0.748100  0.442800  0.319800  1.0  -0.5428
  O  O469  1  0.751900  0.942800  0.680200  1.0  -0.5419
  O  O470  1  0.751900  0.442800  0.180200  1.0  -0.5419
  O  O471  1  0.251900  0.942800  0.180200  1.0  -0.5419
  O  O472  1  0.251900  0.442800  0.680200  1.0  -0.5419
  O  O473  1  0.248100  0.057200  0.680200  1.0  -0.5432
  O  O474  1  0.248100  0.557200  0.180200  1.0  -0.5431
  O  O475  1  0.748100  0.057200  0.180200  1.0  -0.5432
  O  O476  1  0.748100  0.557200  0.680200  1.0  -0.5432
  O  O477  1  0.751900  0.057200  0.319800  1.0  -0.5405
  O  O478  1  0.751900  0.557200  0.819800  1.0  -0.5405
  O  O479  1  0.251900  0.057200  0.819800  1.0  -0.5405
  O  O480  1  0.251900  0.557200  0.319800  1.0  -0.5405
  O  O481  1  0.248100  0.319800  0.057200  1.0  -0.5445
  O  O482  1  0.248100  0.819800  0.557200  1.0  -0.5443
  O  O483  1  0.748100  0.319800  0.557200  1.0  -0.5445
  O  O484  1  0.748100  0.819800  0.057200  1.0  -0.5443
  O  O485  1  0.751900  0.680200  0.057200  1.0  -0.5417
  O  O486  1  0.751900  0.180200  0.557200  1.0  -0.5418
  O  O487  1  0.251900  0.680200  0.557200  1.0  -0.5418
  O  O488  1  0.251900  0.180200  0.057200  1.0  -0.5417
  O  O489  1  0.248100  0.680200  0.942800  1.0  -0.5424
  O  O490  1  0.248100  0.180200  0.442800  1.0  -0.5424
  O  O491  1  0.748100  0.680200  0.442800  1.0  -0.5424
  O  O492  1  0.748100  0.180200  0.942800  1.0  -0.5424
  O  O493  1  0.751900  0.319800  0.942800  1.0  -0.5435
  O  O494  1  0.751900  0.819800  0.442800  1.0  -0.5433
  O  O495  1  0.251900  0.319800  0.442800  1.0  -0.5433
  O  O496  1  0.251900  0.819800  0.942800  1.0  -0.5433
  O  O497  1  0.319800  0.942800  0.751900  1.0  -0.5423
  O  O498  1  0.319800  0.442800  0.251900  1.0  -0.5421
  O  O499  1  0.819800  0.942800  0.251900  1.0  -0.5421
  O  O500  1  0.819800  0.442800  0.751900  1.0  -0.5421
  O  O501  1  0.680200  0.942800  0.248100  1.0  -0.5423
  O  O502  1  0.680200  0.442800  0.748100  1.0  -0.5423
  O  O503  1  0.180200  0.942800  0.748100  1.0  -0.5423
  O  O504  1  0.180200  0.442800  0.248100  1.0  -0.5423
  O  O505  1  0.680200  0.057200  0.751900  1.0  -0.5424
  O  O506  1  0.680200  0.557200  0.251900  1.0  -0.5424
  O  O507  1  0.180200  0.057200  0.251900  1.0  -0.5424
  O  O508  1  0.180200  0.557200  0.751900  1.0  -0.5424
  O  O509  1  0.319800  0.057200  0.248100  1.0  -0.543
  O  O510  1  0.319800  0.557200  0.748100  1.0  -0.5432
  O  O511  1  0.819800  0.057200  0.748100  1.0  -0.543
  O  O512  1  0.819800  0.557200  0.248100  1.0  -0.543
  O  O513  1  0.942800  0.248100  0.680200  1.0  -0.5442
  O  O514  1  0.942800  0.748100  0.180200  1.0  -0.5442
  O  O515  1  0.442800  0.248100  0.180200  1.0  -0.5442
  O  O516  1  0.442800  0.748100  0.680200  1.0  -0.5442
  O  O517  1  0.942800  0.751900  0.319800  1.0  -0.5434
  O  O518  1  0.942800  0.251900  0.819800  1.0  -0.5431
  O  O519  1  0.442800  0.751900  0.819800  1.0  -0.5431
  O  O520  1  0.442800  0.251900  0.319800  1.0  -0.5431
  O  O521  1  0.057200  0.248100  0.319800  1.0  -0.544
  O  O522  1  0.057200  0.748100  0.819800  1.0  -0.544
  O  O523  1  0.557200  0.248100  0.819800  1.0  -0.544
  O  O524  1  0.557200  0.748100  0.319800  1.0  -0.5442
  O  O525  1  0.057200  0.751900  0.680200  1.0  -0.5436
  O  O526  1  0.057200  0.251900  0.180200  1.0  -0.5436
  O  O527  1  0.557200  0.751900  0.180200  1.0  -0.5436
  O  O528  1  0.557200  0.251900  0.680200  1.0  -0.5436
  O  O529  1  0.680200  0.751900  0.057200  1.0  -0.5436
  O  O530  1  0.680200  0.251900  0.557200  1.0  -0.5434
  O  O531  1  0.180200  0.751900  0.557200  1.0  -0.5434
  O  O532  1  0.180200  0.251900  0.057200  1.0  -0.5436
  O  O533  1  0.319800  0.248100  0.057200  1.0  -0.5437
  O  O534  1  0.319800  0.748100  0.557200  1.0  -0.5437
  O  O535  1  0.819800  0.248100  0.557200  1.0  -0.5437
  O  O536  1  0.819800  0.748100  0.057200  1.0  -0.5437
  O  O537  1  0.319800  0.751900  0.942800  1.0  -0.5427
  O  O538  1  0.319800  0.251900  0.442800  1.0  -0.5427
  O  O539  1  0.819800  0.751900  0.442800  1.0  -0.5427
  O  O540  1  0.819800  0.251900  0.942800  1.0  -0.5427
  O  O541  1  0.680200  0.248100  0.942800  1.0  -0.5438
  O  O542  1  0.680200  0.748100  0.442800  1.0  -0.5438
  O  O543  1  0.180200  0.248100  0.442800  1.0  -0.5438
  O  O544  1  0.180200  0.748100  0.942800  1.0  -0.5438
  O  O545  1  0.057200  0.680200  0.751900  1.0  -0.5427
  O  O546  1  0.057200  0.180200  0.251900  1.0  -0.5427
  O  O547  1  0.557200  0.680200  0.251900  1.0  -0.5424
  O  O548  1  0.557200  0.180200  0.751900  1.0  -0.5427
  O  O549  1  0.057200  0.319800  0.248100  1.0  -0.5437
  O  O550  1  0.057200  0.819800  0.748100  1.0  -0.5437
  O  O551  1  0.557200  0.319800  0.748100  1.0  -0.5437
  O  O552  1  0.557200  0.819800  0.248100  1.0  -0.5437
  O  O553  1  0.942800  0.319800  0.751900  1.0  -0.5439
  O  O554  1  0.942800  0.819800  0.251900  1.0  -0.5437
  O  O555  1  0.442800  0.319800  0.251900  1.0  -0.5439
  O  O556  1  0.442800  0.819800  0.751900  1.0  -0.5437
  O  O557  1  0.942800  0.680200  0.248100  1.0  -0.5428
  O  O558  1  0.942800  0.180200  0.748100  1.0  -0.5428
  O  O559  1  0.442800  0.680200  0.748100  1.0  -0.5428
  O  O560  1  0.442800  0.180200  0.248100  1.0  -0.5428
  O  O561  1  0.751900  0.057200  0.680200  1.0  -0.5416
  O  O562  1  0.751900  0.557200  0.180200  1.0  -0.5416
  O  O563  1  0.251900  0.057200  0.180200  1.0  -0.5415
  O  O564  1  0.251900  0.557200  0.680200  1.0  -0.5417
  O  O565  1  0.248100  0.057200  0.319800  1.0  -0.5426
  O  O566  1  0.248100  0.557200  0.819800  1.0  -0.5426
  O  O567  1  0.748100  0.057200  0.819800  1.0  -0.5426
  O  O568  1  0.748100  0.557200  0.319800  1.0  -0.5426
  O  O569  1  0.751900  0.942800  0.319800  1.0  -0.5408
  O  O570  1  0.751900  0.442800  0.819800  1.0  -0.5408
  O  O571  1  0.251900  0.942800  0.819800  1.0  -0.5408
  O  O572  1  0.251900  0.442800  0.319800  1.0  -0.5408
  O  O573  1  0.248100  0.942800  0.680200  1.0  -0.5432
  O  O574  1  0.248100  0.442800  0.180200  1.0  -0.5432
  O  O575  1  0.748100  0.942800  0.180200  1.0  -0.5431
  O  O576  1  0.748100  0.442800  0.680200  1.0  -0.5431
  O  O577  1  0.751900  0.680200  0.942800  1.0  -0.5415
  O  O578  1  0.751900  0.180200  0.442800  1.0  -0.5415
  O  O579  1  0.251900  0.680200  0.442800  1.0  -0.5415
  O  O580  1  0.251900  0.180200  0.942800  1.0  -0.5415
  O  O581  1  0.248100  0.319800  0.942800  1.0  -0.5439
  O  O582  1  0.248100  0.819800  0.442800  1.0  -0.544
  O  O583  1  0.748100  0.319800  0.442800  1.0  -0.5439
  O  O584  1  0.748100  0.819800  0.942800  1.0  -0.544
  O  O585  1  0.751900  0.319800  0.057200  1.0  -0.5433
  O  O586  1  0.751900  0.819800  0.557200  1.0  -0.5435
  O  O587  1  0.251900  0.319800  0.557200  1.0  -0.5433
  O  O588  1  0.251900  0.819800  0.057200  1.0  -0.5435
  O  O589  1  0.248100  0.680200  0.057200  1.0  -0.5427
  O  O590  1  0.248100  0.180200  0.557200  1.0  -0.5427
  O  O591  1  0.748100  0.680200  0.557200  1.0  -0.5427
  O  O592  1  0.748100  0.180200  0.057200  1.0  -0.5427
  O  O593  1  0.680200  0.057200  0.248100  1.0  -0.5419
  O  O594  1  0.680200  0.557200  0.748100  1.0  -0.5419
  O  O595  1  0.180200  0.057200  0.748100  1.0  -0.5419
  O  O596  1  0.180200  0.557200  0.248100  1.0  -0.5421
  O  O597  1  0.319800  0.057200  0.751900  1.0  -0.5424
  O  O598  1  0.319800  0.557200  0.251900  1.0  -0.5425
  O  O599  1  0.819800  0.057200  0.251900  1.0  -0.5426
  O  O600  1  0.819800  0.557200  0.751900  1.0  -0.5425
  O  O601  1  0.319800  0.942800  0.248100  1.0  -0.5429
  O  O602  1  0.319800  0.442800  0.748100  1.0  -0.5429
  O  O603  1  0.819800  0.942800  0.748100  1.0  -0.5431
  O  O604  1  0.819800  0.442800  0.248100  1.0  -0.5431
  O  O605  1  0.680200  0.942800  0.751900  1.0  -0.5423
  O  O606  1  0.680200  0.442800  0.251900  1.0  -0.5423
  O  O607  1  0.180200  0.942800  0.251900  1.0  -0.5423
  O  O608  1  0.180200  0.442800  0.751900  1.0  -0.5423
  O  O609  1  0.057200  0.751900  0.319800  1.0  -0.5435
  O  O610  1  0.057200  0.251900  0.819800  1.0  -0.5435
  O  O611  1  0.557200  0.751900  0.819800  1.0  -0.5436
  O  O612  1  0.557200  0.251900  0.319800  1.0  -0.5435
  O  O613  1  0.057200  0.248100  0.680200  1.0  -0.5441
  O  O614  1  0.057200  0.748100  0.180200  1.0  -0.5441
  O  O615  1  0.557200  0.248100  0.180200  1.0  -0.5441
  O  O616  1  0.557200  0.748100  0.680200  1.0  -0.5441
  O  O617  1  0.942800  0.751900  0.680200  1.0  -0.543
  O  O618  1  0.942800  0.251900  0.180200  1.0  -0.543
  O  O619  1  0.442800  0.751900  0.180200  1.0  -0.543
  O  O620  1  0.442800  0.251900  0.680200  1.0  -0.543
  O  O621  1  0.942800  0.248100  0.319800  1.0  -0.5435
  O  O622  1  0.942800  0.748100  0.819800  1.0  -0.5437
  O  O623  1  0.442800  0.248100  0.819800  1.0  -0.5437
  O  O624  1  0.442800  0.748100  0.319800  1.0  -0.5435
