# generated using pymatgen
data_Mn3H13C22S3NO13
_symmetry_space_group_name_H-M   'P 1'
_cell_length_a   10.65960000
_cell_length_b   16.47330000
_cell_length_c   21.77910000
_cell_angle_alpha   92.68800000
_cell_angle_beta   90.00000000
_cell_angle_gamma   90.00000000
_symmetry_Int_Tables_number   1
_chemical_formula_structural   Mn3H13C22S3NO13
_chemical_formula_sum   'Mn12 H52 C88 S12 N4 O52'
_cell_volume   3820.17568197
_cell_formula_units_Z   4
loop_
 _symmetry_equiv_pos_site_id
 _symmetry_equiv_pos_as_xyz
  1  'x, y, z'
loop_
 _atom_site_type_symbol
 _atom_site_label
 _atom_site_symmetry_multiplicity
 _atom_site_fract_x
 _atom_site_fract_y
 _atom_site_fract_z
 _atom_site_occupancy
 _atom_site_charge
  Mn  Mn1  1  0.693950  0.738660  0.134580  1.0  1.1109
  Mn  Mn2  1  0.734830  0.752590  0.974470  1.0  1.1272
  Mn  Mn3  1  0.921190  0.773280  0.812430  1.0  1.1772
  Mn  Mn4  1  0.193950  0.261340  0.365420  1.0  1.1108
  Mn  Mn5  1  0.234830  0.247410  0.525530  1.0  1.1262
  Mn  Mn6  1  0.421190  0.226720  0.687570  1.0  1.1774
  Mn  Mn7  1  0.306050  0.261340  0.865420  1.0  1.1118
  Mn  Mn8  1  0.265170  0.247410  0.025530  1.0  1.1263
  Mn  Mn9  1  0.078810  0.226720  0.187570  1.0  1.1777
  Mn  Mn10  1  0.806050  0.738660  0.634580  1.0  1.1119
  Mn  Mn11  1  0.765170  0.752590  0.474470  1.0  1.1272
  Mn  Mn12  1  0.578810  0.773280  0.312430  1.0  1.1776
  H  H13  1  0.744800  0.537800  0.127800  1.0  0.1301
  H  H14  1  0.885200  0.552900  0.109600  1.0  0.1191
  H  H15  1  0.709400  0.418700  0.994200  1.0  0.0643
  H  H16  1  0.849800  0.439500  0.978000  1.0  0.0641
  H  H17  1  0.756200  0.416900  0.090900  1.0  0.0775
  H  H18  1  0.898100  0.431400  0.074100  1.0  0.0881
  H  H19  1  0.713200  0.558500  0.963500  1.0  0.2965
  H  H20  1  0.772300  0.558700  0.746800  1.0  0.1042
  H  H21  1  0.404900  0.070200  0.908500  1.0  0.1113
  H  H22  1  0.056500  0.740300  0.067900  1.0  0.1117
  H  H23  1  0.673900  0.429800  0.716400  1.0  0.1199
  H  H24  1  0.538400  0.966900  0.950700  1.0  0.1089
  H  H25  1  0.266500  0.749300  0.114100  1.0  0.1272
  H  H26  1  0.244800  0.462200  0.372200  1.0  0.1309
  H  H27  1  0.385200  0.447100  0.390400  1.0  0.119
  H  H28  1  0.209400  0.581300  0.505800  1.0  0.0648
  H  H29  1  0.349800  0.560500  0.522000  1.0  0.0644
  H  H30  1  0.256200  0.583100  0.409100  1.0  0.076
  H  H31  1  0.398100  0.568600  0.425900  1.0  0.0879
  H  H32  1  0.213200  0.441500  0.536500  1.0  0.2957
  H  H33  1  0.272300  0.441300  0.753200  1.0  0.105
  H  H34  1  0.904900  0.929800  0.591500  1.0  0.1115
  H  H35  1  0.556500  0.259700  0.432100  1.0  0.1118
  H  H36  1  0.173900  0.570200  0.783600  1.0  0.1203
  H  H37  1  0.038400  0.033100  0.549300  1.0  0.1083
  H  H38  1  0.766500  0.250700  0.385900  1.0  0.1265
  H  H39  1  0.255200  0.462200  0.872200  1.0  0.131
  H  H40  1  0.114800  0.447100  0.890400  1.0  0.1202
  H  H41  1  0.290600  0.581300  0.005800  1.0  0.0658
  H  H42  1  0.150200  0.560500  0.022000  1.0  0.0638
  H  H43  1  0.243800  0.583100  0.909100  1.0  0.0756
  H  H44  1  0.101900  0.568600  0.925900  1.0  0.0844
  H  H45  1  0.286800  0.441500  0.036500  1.0  0.296
  H  H46  1  0.227700  0.441300  0.253200  1.0  0.1049
  H  H47  1  0.595100  0.929800  0.091500  1.0  0.1111
  H  H48  1  0.943500  0.259700  0.932100  1.0  0.1114
  H  H49  1  0.326100  0.570200  0.283600  1.0  0.1202
  H  H50  1  0.461600  0.033100  0.049300  1.0  0.1085
  H  H51  1  0.733500  0.250700  0.885900  1.0  0.1262
  H  H52  1  0.755200  0.537800  0.627800  1.0  0.13
  H  H53  1  0.614800  0.552900  0.609600  1.0  0.1206
  H  H54  1  0.790600  0.418700  0.494200  1.0  0.0652
  H  H55  1  0.650200  0.439500  0.478000  1.0  0.0639
  H  H56  1  0.743800  0.416900  0.590900  1.0  0.0767
  H  H57  1  0.601900  0.431400  0.574100  1.0  0.0843
  H  H58  1  0.786800  0.558500  0.463500  1.0  0.2961
  H  H59  1  0.727700  0.558700  0.246800  1.0  0.1044
  H  H60  1  0.095100  0.070200  0.408500  1.0  0.1108
  H  H61  1  0.443500  0.740300  0.567900  1.0  0.1113
  H  H62  1  0.826100  0.429800  0.216400  1.0  0.12
  H  H63  1  0.961600  0.966900  0.450700  1.0  0.1092
  H  H64  1  0.233500  0.749300  0.614100  1.0  0.1268
  C  C65  1  0.804100  0.534800  0.094000  1.0  -0.3525
  C  C66  1  0.779200  0.454700  0.004200  1.0  0.055
  C  C67  1  0.813400  0.451800  0.069600  1.0  -0.1013
  C  C68  1  0.763500  0.586700  0.046900  1.0  0.6626
  C  C69  1  0.711300  0.534200  0.770200  1.0  -0.0553
  C  C70  1  0.471600  0.045800  0.887100  1.0  -0.0466
  C  C71  1  0.129400  0.749100  0.045700  1.0  -0.0724
  C  C72  1  0.669400  0.566700  0.824500  1.0  -0.2132
  C  C73  1  0.654200  0.459800  0.752300  1.0  -0.0734
  C  C74  1  0.547800  0.985600  0.911300  1.0  -0.0596
  C  C75  1  0.712100  0.642900  0.856300  1.0  0.7372
  C  C76  1  0.636800  0.957800  0.871100  1.0  -0.1952
  C  C77  1  0.250900  0.753900  0.072400  1.0  -0.0653
  C  C78  1  0.024800  0.754600  0.940800  1.0  0.7389
  C  C79  1  0.484800  0.364000  0.787600  1.0  0.7318
  C  C80  1  0.567200  0.437100  0.793500  1.0  -0.1991
  C  C81  1  0.341900  0.765900  0.029900  1.0  -0.2116
  C  C82  1  0.452800  0.125700  0.787800  1.0  0.7302
  C  C83  1  0.728600  0.891400  0.878280  1.0  0.7529
  C  C84  1  0.131900  0.759000  0.983400  1.0  -0.2149
  C  C85  1  0.480400  0.768100  0.039200  1.0  0.7034
  C  C86  1  0.505400  0.065000  0.828900  1.0  -0.2172
  C  C87  1  0.304100  0.465200  0.406000  1.0  -0.352
  C  C88  1  0.279200  0.545300  0.495800  1.0  0.0549
  C  C89  1  0.313400  0.548200  0.430400  1.0  -0.1028
  C  C90  1  0.263500  0.413300  0.453100  1.0  0.6592
  C  C91  1  0.211300  0.465800  0.729800  1.0  -0.0546
  C  C92  1  0.971600  0.954200  0.612900  1.0  -0.0475
  C  C93  1  0.629400  0.250900  0.454300  1.0  -0.0717
  C  C94  1  0.169400  0.433300  0.675500  1.0  -0.2128
  C  C95  1  0.154200  0.540200  0.747700  1.0  -0.0735
  C  C96  1  0.047800  0.014400  0.588700  1.0  -0.0592
  C  C97  1  0.212100  0.357100  0.643700  1.0  0.7379
  C  C98  1  0.136800  0.042200  0.628900  1.0  -0.1957
  C  C99  1  0.750900  0.246100  0.427600  1.0  -0.0645
  C  C100  1  0.524800  0.245400  0.559200  1.0  0.7384
  C  C101  1  0.984800  0.636000  0.712400  1.0  0.7305
  C  C102  1  0.067200  0.562900  0.706500  1.0  -0.1984
  C  C103  1  0.841900  0.234100  0.470100  1.0  -0.2116
  C  C104  1  0.952800  0.874300  0.712200  1.0  0.7282
  C  C105  1  0.228600  0.108600  0.621720  1.0  0.7535
  C  C106  1  0.631900  0.241000  0.516600  1.0  -0.2144
  C  C107  1  0.980400  0.231900  0.460800  1.0  0.704
  C  C108  1  0.005400  0.935000  0.671100  1.0  -0.2171
  C  C109  1  0.195900  0.465200  0.906000  1.0  -0.3514
  C  C110  1  0.220800  0.545300  0.995800  1.0  0.0552
  C  C111  1  0.186600  0.548200  0.930400  1.0  -0.1027
  C  C112  1  0.236500  0.413300  0.953100  1.0  0.6592
  C  C113  1  0.288700  0.465800  0.229800  1.0  -0.0549
  C  C114  1  0.528400  0.954200  0.112900  1.0  -0.0467
  C  C115  1  0.870600  0.250900  0.954300  1.0  -0.0729
  C  C116  1  0.330600  0.433300  0.175500  1.0  -0.2125
  C  C117  1  0.345800  0.540200  0.247700  1.0  -0.0729
  C  C118  1  0.452200  0.014400  0.088700  1.0  -0.0596
  C  C119  1  0.287900  0.357100  0.143700  1.0  0.7382
  C  C120  1  0.363200  0.042200  0.128900  1.0  -0.1967
  C  C121  1  0.749100  0.246100  0.927600  1.0  -0.0655
  C  C122  1  0.975200  0.245400  0.059200  1.0  0.7385
  C  C123  1  0.515200  0.636000  0.212400  1.0  0.7303
  C  C124  1  0.432800  0.562900  0.206500  1.0  -0.1987
  C  C125  1  0.658100  0.234100  0.970100  1.0  -0.2116
  C  C126  1  0.547200  0.874300  0.212200  1.0  0.7279
  C  C127  1  0.271400  0.108600  0.121720  1.0  0.7546
  C  C128  1  0.868100  0.241000  0.016600  1.0  -0.2144
  C  C129  1  0.519600  0.231900  0.960800  1.0  0.7041
  C  C130  1  0.494600  0.935000  0.171100  1.0  -0.2166
  C  C131  1  0.695900  0.534800  0.594000  1.0  -0.3533
  C  C132  1  0.720800  0.454700  0.504200  1.0  0.0547
  C  C133  1  0.686600  0.451800  0.569600  1.0  -0.1015
  C  C134  1  0.736500  0.586700  0.546900  1.0  0.6626
  C  C135  1  0.788700  0.534200  0.270200  1.0  -0.0557
  C  C136  1  0.028400  0.045800  0.387100  1.0  -0.0461
  C  C137  1  0.370600  0.749100  0.545700  1.0  -0.071
  C  C138  1  0.830600  0.566700  0.324500  1.0  -0.2136
  C  C139  1  0.845800  0.459800  0.252300  1.0  -0.0728
  C  C140  1  0.952200  0.985600  0.411300  1.0  -0.0597
  C  C141  1  0.787900  0.642900  0.356300  1.0  0.7374
  C  C142  1  0.863200  0.957800  0.371100  1.0  -0.1964
  C  C143  1  0.249100  0.753900  0.572400  1.0  -0.0664
  C  C144  1  0.475200  0.754600  0.440800  1.0  0.7386
  C  C145  1  0.015200  0.364000  0.287600  1.0  0.7316
  C  C146  1  0.932800  0.437100  0.293500  1.0  -0.1998
  C  C147  1  0.158100  0.765900  0.529900  1.0  -0.2116
  C  C148  1  0.047200  0.125700  0.287800  1.0  0.7296
  C  C149  1  0.771400  0.891400  0.378280  1.0  0.7539
  C  C150  1  0.368100  0.759000  0.483400  1.0  -0.2143
  C  C151  1  0.019600  0.768100  0.539200  1.0  0.7034
  C  C152  1  0.994600  0.065000  0.328900  1.0  -0.2174
  S  S153  1  0.554890  0.506440  0.854280  1.0  0.132
  S  S154  1  0.630840  0.007830  0.803470  1.0  0.1757
  S  S155  1  0.281680  0.772890  0.957390  1.0  0.1941
  S  S156  1  0.054890  0.493560  0.645720  1.0  0.1321
  S  S157  1  0.130840  0.992170  0.696530  1.0  0.1757
  S  S158  1  0.781680  0.227110  0.542610  1.0  0.1944
  S  S159  1  0.445110  0.493560  0.145720  1.0  0.132
  S  S160  1  0.369160  0.992170  0.196530  1.0  0.1762
  S  S161  1  0.718320  0.227110  0.042610  1.0  0.1926
  S  S162  1  0.945110  0.506440  0.354280  1.0  0.1321
  S  S163  1  0.869160  0.007830  0.303470  1.0  0.1767
  S  S164  1  0.218320  0.772890  0.457390  1.0  0.1934
  N  N165  1  0.743600  0.540600  0.996900  1.0  -0.3914
  N  N166  1  0.243600  0.459400  0.503100  1.0  -0.3913
  N  N167  1  0.256400  0.459400  0.003100  1.0  -0.3926
  N  N168  1  0.756400  0.540600  0.496900  1.0  -0.3925
  O  O169  1  0.673500  0.658100  0.909890  1.0  -0.6173
  O  O170  1  0.785600  0.685500  0.827000  1.0  -0.6406
  O  O171  1  0.545600  0.779700  0.993090  1.0  -0.5972
  O  O172  1  0.924400  0.727300  0.960940  1.0  -0.6655
  O  O173  1  0.394300  0.360600  0.824040  1.0  -0.6293
  O  O174  1  0.351500  0.163000  0.802780  1.0  -0.6723
  O  O175  1  0.044400  0.776900  0.886930  1.0  -0.5973
  O  O176  1  0.510700  0.135700  0.738690  1.0  -0.5522
  O  O177  1  0.780600  0.863900  0.830570  1.0  -0.606
  O  O178  1  0.746100  0.867700  0.932050  1.0  -0.6544
  O  O179  1  0.517800  0.756600  0.092590  1.0  -0.6015
  O  O180  1  0.514000  0.313500  0.745180  1.0  -0.6176
  O  O181  1  0.741100  0.659770  0.050250  1.0  -0.6257
  O  O182  1  0.173500  0.341900  0.590110  1.0  -0.6165
  O  O183  1  0.285600  0.314500  0.673000  1.0  -0.6413
  O  O184  1  0.045600  0.220300  0.506910  1.0  -0.5978
  O  O185  1  0.424400  0.272700  0.539060  1.0  -0.6659
  O  O186  1  0.894300  0.639400  0.675960  1.0  -0.6299
  O  O187  1  0.851500  0.837000  0.697220  1.0  -0.6727
  O  O188  1  0.544400  0.223100  0.613070  1.0  -0.5962
  O  O189  1  0.010700  0.864300  0.761310  1.0  -0.5525
  O  O190  1  0.280600  0.136100  0.669430  1.0  -0.6053
  O  O191  1  0.246100  0.132300  0.567950  1.0  -0.6548
  O  O192  1  0.017800  0.243400  0.407410  1.0  -0.601
  O  O193  1  0.014000  0.686500  0.754820  1.0  -0.6176
  O  O194  1  0.241100  0.340230  0.449750  1.0  -0.6268
  O  O195  1  0.326500  0.341900  0.090110  1.0  -0.6168
  O  O196  1  0.214400  0.314500  0.173000  1.0  -0.6431
  O  O197  1  0.454400  0.220300  0.006910  1.0  -0.5982
  O  O198  1  0.075600  0.272700  0.039060  1.0  -0.666
  O  O199  1  0.605700  0.639400  0.175960  1.0  -0.6299
  O  O200  1  0.648500  0.837000  0.197220  1.0  -0.6728
  O  O201  1  0.955600  0.223100  0.113070  1.0  -0.5965
  O  O202  1  0.489300  0.864300  0.261310  1.0  -0.5516
  O  O203  1  0.219400  0.136100  0.169430  1.0  -0.6042
  O  O204  1  0.253900  0.132300  0.067950  1.0  -0.6548
  O  O205  1  0.482200  0.243400  0.907410  1.0  -0.6008
  O  O206  1  0.486000  0.686500  0.254820  1.0  -0.6173
  O  O207  1  0.258900  0.340230  0.949750  1.0  -0.6274
  O  O208  1  0.826500  0.658100  0.409890  1.0  -0.6175
  O  O209  1  0.714400  0.685500  0.327000  1.0  -0.642
  O  O210  1  0.954400  0.779700  0.493090  1.0  -0.5975
  O  O211  1  0.575600  0.727300  0.460940  1.0  -0.6654
  O  O212  1  0.105700  0.360600  0.324040  1.0  -0.6293
  O  O213  1  0.148500  0.163000  0.302780  1.0  -0.6729
  O  O214  1  0.455600  0.776900  0.386930  1.0  -0.5973
  O  O215  1  0.989300  0.135700  0.238690  1.0  -0.5518
  O  O216  1  0.719400  0.863900  0.330570  1.0  -0.6053
  O  O217  1  0.753900  0.867700  0.432050  1.0  -0.6547
  O  O218  1  0.982200  0.756600  0.592590  1.0  -0.6012
  O  O219  1  0.986000  0.313500  0.245180  1.0  -0.6172
  O  O220  1  0.758900  0.659770  0.550250  1.0  -0.6263
