# generated using pymatgen
data_AgH16(C7N)4
_symmetry_space_group_name_H-M   'P 1'
_cell_length_a   24.55200000
_cell_length_b   24.55200000
_cell_length_c   4.84500000
_cell_angle_alpha   90.00000000
_cell_angle_beta   90.00000000
_cell_angle_gamma   90.00000000
_symmetry_Int_Tables_number   1
_chemical_formula_structural   AgH16(C7N)4
_chemical_formula_sum   'Ag4 H64 C112 N16'
_cell_volume   2920.56941088
_cell_formula_units_Z   4
loop_
 _symmetry_equiv_pos_site_id
 _symmetry_equiv_pos_as_xyz
  1  'x, y, z'
loop_
 _atom_site_type_symbol
 _atom_site_label
 _atom_site_symmetry_multiplicity
 _atom_site_fract_x
 _atom_site_fract_y
 _atom_site_fract_z
 _atom_site_occupancy
 _atom_site_charge
  Ag  Ag1  1  0.000000  0.500000  0.750000  1.0  0.3587
  Ag  Ag2  1  0.500000  0.000000  0.250000  1.0  0.3587
  Ag  Ag3  1  0.500000  0.500000  0.000000  1.0  0.3587
  Ag  Ag4  1  0.000000  0.000000  0.500000  1.0  0.3587
  H  H5  1  0.881900  0.649100  0.084200  1.0  0.1195
  H  H6  1  0.880200  0.714800  0.757000  1.0  0.1254
  H  H7  1  0.044100  0.722000  0.762600  1.0  0.1378
  H  H8  1  0.042500  0.651100  0.096600  1.0  0.1117
  H  H9  1  0.381900  0.149100  0.584200  1.0  0.1195
  H  H10  1  0.380200  0.214800  0.257000  1.0  0.1254
  H  H11  1  0.544100  0.222000  0.262600  1.0  0.1378
  H  H12  1  0.542500  0.151100  0.596600  1.0  0.1117
  H  H13  1  0.118100  0.350900  0.084200  1.0  0.1196
  H  H14  1  0.119800  0.285200  0.757000  1.0  0.1251
  H  H15  1  0.955900  0.278000  0.762600  1.0  0.1382
  H  H16  1  0.957500  0.348900  0.096600  1.0  0.1113
  H  H17  1  0.618100  0.850900  0.584200  1.0  0.1196
  H  H18  1  0.619800  0.785200  0.257000  1.0  0.1251
  H  H19  1  0.455900  0.778000  0.262600  1.0  0.1382
  H  H20  1  0.457500  0.848900  0.596600  1.0  0.1113
  H  H21  1  0.649100  0.118100  0.915800  1.0  0.1196
  H  H22  1  0.714800  0.119800  0.243000  1.0  0.1278
  H  H23  1  0.722000  0.955900  0.237400  1.0  0.1423
  H  H24  1  0.651100  0.957500  0.903400  1.0  0.1113
  H  H25  1  0.149100  0.618100  0.415800  1.0  0.1196
  H  H26  1  0.214800  0.619800  0.743000  1.0  0.1278
  H  H27  1  0.222000  0.455900  0.737400  1.0  0.1423
  H  H28  1  0.151100  0.457500  0.403400  1.0  0.1113
  H  H29  1  0.350900  0.881900  0.915800  1.0  0.1196
  H  H30  1  0.285200  0.880200  0.243000  1.0  0.1278
  H  H31  1  0.278000  0.044100  0.237400  1.0  0.1421
  H  H32  1  0.348900  0.042500  0.903400  1.0  0.1113
  H  H33  1  0.850900  0.381900  0.415800  1.0  0.1196
  H  H34  1  0.785200  0.380200  0.743000  1.0  0.1278
  H  H35  1  0.778000  0.544100  0.737400  1.0  0.1421
  H  H36  1  0.848900  0.542500  0.403400  1.0  0.1113
  H  H37  1  0.618100  0.649100  0.665800  1.0  0.1196
  H  H38  1  0.619800  0.714800  0.993000  1.0  0.1252
  H  H39  1  0.455900  0.722000  0.987400  1.0  0.1378
  H  H40  1  0.457500  0.651100  0.653400  1.0  0.1113
  H  H41  1  0.118100  0.149100  0.165800  1.0  0.1196
  H  H42  1  0.119800  0.214800  0.493000  1.0  0.1252
  H  H43  1  0.955900  0.222000  0.487400  1.0  0.1378
  H  H44  1  0.957500  0.151100  0.153400  1.0  0.1113
  H  H45  1  0.381900  0.350900  0.665800  1.0  0.1195
  H  H46  1  0.380200  0.285200  0.993000  1.0  0.125
  H  H47  1  0.544100  0.278000  0.987400  1.0  0.1374
  H  H48  1  0.542500  0.348900  0.653400  1.0  0.1118
  H  H49  1  0.881900  0.850900  0.165800  1.0  0.1195
  H  H50  1  0.880200  0.785200  0.493000  1.0  0.125
  H  H51  1  0.044100  0.778000  0.487400  1.0  0.1374
  H  H52  1  0.042500  0.848900  0.153400  1.0  0.1118
  H  H53  1  0.850900  0.118100  0.834200  1.0  0.1191
  H  H54  1  0.785200  0.119800  0.507000  1.0  0.1279
  H  H55  1  0.778000  0.955900  0.512600  1.0  0.1425
  H  H56  1  0.848900  0.957500  0.846600  1.0  0.1115
  H  H57  1  0.350900  0.618100  0.334200  1.0  0.1191
  H  H58  1  0.285200  0.619800  0.007000  1.0  0.1279
  H  H59  1  0.278000  0.455900  0.012600  1.0  0.1425
  H  H60  1  0.348900  0.457500  0.346600  1.0  0.1115
  H  H61  1  0.149100  0.881900  0.834200  1.0  0.1197
  H  H62  1  0.214800  0.880200  0.507000  1.0  0.128
  H  H63  1  0.222000  0.044100  0.512600  1.0  0.1419
  H  H64  1  0.151100  0.042500  0.846600  1.0  0.1114
  H  H65  1  0.649100  0.381900  0.334200  1.0  0.1197
  H  H66  1  0.714800  0.380200  0.007000  1.0  0.128
  H  H67  1  0.722000  0.544100  0.012600  1.0  0.1419
  H  H68  1  0.651100  0.542500  0.346600  1.0  0.1114
  C  C69  1  0.962400  0.642100  0.118400  1.0  0.0883
  C  C70  1  0.914700  0.662900  0.018400  1.0  -0.1139
  C  C71  1  0.913700  0.703300  0.824900  1.0  -0.0807
  C  C72  1  0.961200  0.728000  0.724700  1.0  0.0465
  C  C73  1  0.011100  0.707800  0.824600  1.0  -0.2042
  C  C74  1  0.009700  0.664300  0.026900  1.0  -0.1284
  C  C75  1  0.965600  0.602300  0.317900  1.0  0.3851
  C  C76  1  0.462400  0.142100  0.618400  1.0  0.0883
  C  C77  1  0.414700  0.162900  0.518400  1.0  -0.1139
  C  C78  1  0.413700  0.203300  0.324900  1.0  -0.0807
  C  C79  1  0.461200  0.228000  0.224700  1.0  0.0465
  C  C80  1  0.511100  0.207800  0.324600  1.0  -0.2042
  C  C81  1  0.509700  0.164300  0.526900  1.0  -0.1284
  C  C82  1  0.465600  0.102300  0.817900  1.0  0.3851
  C  C83  1  0.037600  0.357900  0.118400  1.0  0.0894
  C  C84  1  0.085300  0.337100  0.018400  1.0  -0.1149
  C  C85  1  0.086300  0.296700  0.824900  1.0  -0.0821
  C  C86  1  0.038800  0.272000  0.724700  1.0  0.0461
  C  C87  1  0.988900  0.292200  0.824600  1.0  -0.2048
  C  C88  1  0.990300  0.335700  0.026900  1.0  -0.1291
  C  C89  1  0.034400  0.397700  0.317900  1.0  0.3835
  C  C90  1  0.537600  0.857900  0.618400  1.0  0.0894
  C  C91  1  0.585300  0.837100  0.518400  1.0  -0.1149
  C  C92  1  0.586300  0.796700  0.324900  1.0  -0.0821
  C  C93  1  0.538800  0.772000  0.224700  1.0  0.0461
  C  C94  1  0.488900  0.792200  0.324600  1.0  -0.2048
  C  C95  1  0.490300  0.835700  0.526900  1.0  -0.1291
  C  C96  1  0.534400  0.897700  0.817900  1.0  0.3835
  C  C97  1  0.642100  0.037600  0.881600  1.0  0.0825
  C  C98  1  0.662900  0.085300  0.981600  1.0  -0.1192
  C  C99  1  0.703300  0.086300  0.175100  1.0  -0.0862
  C  C100  1  0.728000  0.038800  0.275300  1.0  0.046
  C  C101  1  0.707800  0.988900  0.175400  1.0  -0.2075
  C  C102  1  0.664300  0.990300  0.973100  1.0  -0.1361
  C  C103  1  0.602300  0.034400  0.682100  1.0  0.3841
  C  C104  1  0.142100  0.537600  0.381600  1.0  0.0825
  C  C105  1  0.162900  0.585300  0.481600  1.0  -0.1192
  C  C106  1  0.203300  0.586300  0.675100  1.0  -0.0862
  C  C107  1  0.228000  0.538800  0.775300  1.0  0.046
  C  C108  1  0.207800  0.488900  0.675400  1.0  -0.2075
  C  C109  1  0.164300  0.490300  0.473100  1.0  -0.1361
  C  C110  1  0.102300  0.534400  0.182100  1.0  0.3841
  C  C111  1  0.357900  0.962400  0.881600  1.0  0.0841
  C  C112  1  0.337100  0.914700  0.981600  1.0  -0.1176
  C  C113  1  0.296700  0.913700  0.175100  1.0  -0.0891
  C  C114  1  0.272000  0.961200  0.275300  1.0  0.0456
  C  C115  1  0.292200  0.011100  0.175400  1.0  -0.2092
  C  C116  1  0.335700  0.009700  0.973100  1.0  -0.134
  C  C117  1  0.397700  0.965600  0.682100  1.0  0.3838
  C  C118  1  0.857900  0.462400  0.381600  1.0  0.0841
  C  C119  1  0.837100  0.414700  0.481600  1.0  -0.1176
  C  C120  1  0.796700  0.413700  0.675100  1.0  -0.0891
  C  C121  1  0.772000  0.461200  0.775300  1.0  0.0456
  C  C122  1  0.792200  0.511100  0.675400  1.0  -0.2092
  C  C123  1  0.835700  0.509700  0.473100  1.0  -0.134
  C  C124  1  0.897700  0.465600  0.182100  1.0  0.3838
  C  C125  1  0.537600  0.642100  0.631600  1.0  0.0877
  C  C126  1  0.585300  0.662900  0.731600  1.0  -0.114
  C  C127  1  0.586300  0.703300  0.925100  1.0  -0.0813
  C  C128  1  0.538800  0.728000  0.025300  1.0  0.0456
  C  C129  1  0.488900  0.707800  0.925400  1.0  -0.2069
  C  C130  1  0.490300  0.664300  0.723100  1.0  -0.1289
  C  C131  1  0.534400  0.602300  0.432100  1.0  0.3843
  C  C132  1  0.037600  0.142100  0.131600  1.0  0.0877
  C  C133  1  0.085300  0.162900  0.231600  1.0  -0.114
  C  C134  1  0.086300  0.203300  0.425100  1.0  -0.0813
  C  C135  1  0.038800  0.228000  0.525300  1.0  0.0456
  C  C136  1  0.988900  0.207800  0.425400  1.0  -0.2069
  C  C137  1  0.990300  0.164300  0.223100  1.0  -0.1289
  C  C138  1  0.034400  0.102300  0.932100  1.0  0.3843
  C  C139  1  0.462400  0.357900  0.631600  1.0  0.0893
  C  C140  1  0.414700  0.337100  0.731600  1.0  -0.1149
  C  C141  1  0.413700  0.296700  0.925100  1.0  -0.0818
  C  C142  1  0.461200  0.272000  0.025300  1.0  0.0466
  C  C143  1  0.511100  0.292200  0.925400  1.0  -0.2062
  C  C144  1  0.509700  0.335700  0.723100  1.0  -0.1285
  C  C145  1  0.465600  0.397700  0.432100  1.0  0.3834
  C  C146  1  0.962400  0.857900  0.131600  1.0  0.0893
  C  C147  1  0.914700  0.837100  0.231600  1.0  -0.1149
  C  C148  1  0.913700  0.796700  0.425100  1.0  -0.0818
  C  C149  1  0.961200  0.772000  0.525300  1.0  0.0466
  C  C150  1  0.011100  0.792200  0.425400  1.0  -0.2062
  C  C151  1  0.009700  0.835700  0.223100  1.0  -0.1285
  C  C152  1  0.965600  0.897700  0.932100  1.0  0.3834
  C  C153  1  0.857900  0.037600  0.868400  1.0  0.0842
  C  C154  1  0.837100  0.085300  0.768400  1.0  -0.1187
  C  C155  1  0.796700  0.086300  0.574900  1.0  -0.0876
  C  C156  1  0.772000  0.038800  0.474700  1.0  0.0458
  C  C157  1  0.792200  0.988900  0.574600  1.0  -0.2093
  C  C158  1  0.835700  0.990300  0.776900  1.0  -0.1361
  C  C159  1  0.897700  0.034400  0.067900  1.0  0.3847
  C  C160  1  0.357900  0.537600  0.368400  1.0  0.0842
  C  C161  1  0.337100  0.585300  0.268400  1.0  -0.1187
  C  C162  1  0.296700  0.586300  0.074900  1.0  -0.0876
  C  C163  1  0.272000  0.538800  0.974700  1.0  0.0458
  C  C164  1  0.292200  0.488900  0.074600  1.0  -0.2093
  C  C165  1  0.335700  0.490300  0.276900  1.0  -0.1361
  C  C166  1  0.397700  0.534400  0.567900  1.0  0.3847
  C  C167  1  0.142100  0.962400  0.868400  1.0  0.0825
  C  C168  1  0.162900  0.914700  0.768400  1.0  -0.1176
  C  C169  1  0.203300  0.913700  0.574900  1.0  -0.088
  C  C170  1  0.228000  0.961200  0.474700  1.0  0.0463
  C  C171  1  0.207800  0.011100  0.574600  1.0  -0.2097
  C  C172  1  0.164300  0.009700  0.776900  1.0  -0.1346
  C  C173  1  0.102300  0.965600  0.067900  1.0  0.3846
  C  C174  1  0.642100  0.462400  0.368400  1.0  0.0825
  C  C175  1  0.662900  0.414700  0.268400  1.0  -0.1176
  C  C176  1  0.703300  0.413700  0.074900  1.0  -0.088
  C  C177  1  0.728000  0.461200  0.974700  1.0  0.0463
  C  C178  1  0.707800  0.511100  0.074600  1.0  -0.2097
  C  C179  1  0.664300  0.509700  0.276900  1.0  -0.1346
  C  C180  1  0.602300  0.465600  0.567900  1.0  0.3846
  N  N181  1  0.968200  0.569200  0.482600  1.0  -0.5629
  N  N182  1  0.468200  0.069200  0.982600  1.0  -0.5629
  N  N183  1  0.031800  0.430800  0.482600  1.0  -0.5656
  N  N184  1  0.531800  0.930800  0.982600  1.0  -0.5656
  N  N185  1  0.569200  0.031800  0.517400  1.0  -0.5621
  N  N186  1  0.069200  0.531800  0.017400  1.0  -0.5621
  N  N187  1  0.430800  0.968200  0.517400  1.0  -0.5617
  N  N188  1  0.930800  0.468200  0.017400  1.0  -0.5617
  N  N189  1  0.531800  0.569200  0.267400  1.0  -0.5649
  N  N190  1  0.031800  0.069200  0.767400  1.0  -0.5649
  N  N191  1  0.468200  0.430800  0.267400  1.0  -0.5662
  N  N192  1  0.968200  0.930800  0.767400  1.0  -0.5662
  N  N193  1  0.930800  0.031800  0.232600  1.0  -0.5611
  N  N194  1  0.430800  0.531800  0.732600  1.0  -0.5611
  N  N195  1  0.069200  0.968200  0.232600  1.0  -0.5617
  N  N196  1  0.569200  0.468200  0.732600  1.0  -0.5617
