# generated using pymatgen
data_AgH16(C7N)4
_symmetry_space_group_name_H-M   'P 1'
_cell_length_a   24.27200000
_cell_length_b   24.27200000
_cell_length_c   4.93700000
_cell_angle_alpha   90.00000000
_cell_angle_beta   90.00000000
_cell_angle_gamma   90.00000000
_symmetry_Int_Tables_number   1
_chemical_formula_structural   AgH16(C7N)4
_chemical_formula_sum   'Ag4 H64 C112 N16'
_cell_volume   2908.53473101
_cell_formula_units_Z   4
loop_
 _symmetry_equiv_pos_site_id
 _symmetry_equiv_pos_as_xyz
  1  'x, y, z'
loop_
 _atom_site_type_symbol
 _atom_site_label
 _atom_site_symmetry_multiplicity
 _atom_site_fract_x
 _atom_site_fract_y
 _atom_site_fract_z
 _atom_site_occupancy
 _atom_site_charge
  Ag  Ag1  1  0.000000  0.500000  0.250000  1.0  0.3507
  Ag  Ag2  1  0.500000  0.000000  0.750000  1.0  0.3507
  Ag  Ag3  1  0.500000  0.500000  0.500000  1.0  0.3507
  Ag  Ag4  1  0.000000  0.000000  0.000000  1.0  0.3507
  H  H5  1  0.850200  0.546500  0.915000  1.0  0.1238
  H  H6  1  0.777500  0.546700  0.228000  1.0  0.149
  H  H7  1  0.783100  0.380800  0.228000  1.0  0.1131
  H  H8  1  0.849200  0.382500  0.922000  1.0  0.1123
  H  H9  1  0.350200  0.046500  0.415000  1.0  0.1238
  H  H10  1  0.277500  0.046700  0.728000  1.0  0.149
  H  H11  1  0.283100  0.880800  0.728000  1.0  0.1131
  H  H12  1  0.349200  0.882500  0.422000  1.0  0.1123
  H  H13  1  0.149800  0.453500  0.915000  1.0  0.1232
  H  H14  1  0.222500  0.453300  0.228000  1.0  0.1488
  H  H15  1  0.216900  0.619200  0.228000  1.0  0.1134
  H  H16  1  0.150800  0.617500  0.922000  1.0  0.1131
  H  H17  1  0.649800  0.953500  0.415000  1.0  0.1232
  H  H18  1  0.722500  0.953300  0.728000  1.0  0.1488
  H  H19  1  0.716900  0.119200  0.728000  1.0  0.1134
  H  H20  1  0.650800  0.117500  0.422000  1.0  0.1131
  H  H21  1  0.546500  0.149800  0.085000  1.0  0.1255
  H  H22  1  0.546700  0.222500  0.772000  1.0  0.1483
  H  H23  1  0.380800  0.216900  0.772000  1.0  0.111
  H  H24  1  0.382500  0.150800  0.078000  1.0  0.1126
  H  H25  1  0.046500  0.649800  0.585000  1.0  0.1255
  H  H26  1  0.046700  0.722500  0.272000  1.0  0.1483
  H  H27  1  0.880800  0.716900  0.272000  1.0  0.111
  H  H28  1  0.882500  0.650800  0.578000  1.0  0.1126
  H  H29  1  0.453500  0.850200  0.085000  1.0  0.1241
  H  H30  1  0.453300  0.777500  0.772000  1.0  0.1474
  H  H31  1  0.619200  0.783100  0.772000  1.0  0.1109
  H  H32  1  0.617500  0.849200  0.078000  1.0  0.112
  H  H33  1  0.953500  0.350200  0.585000  1.0  0.1241
  H  H34  1  0.953300  0.277500  0.272000  1.0  0.1474
  H  H35  1  0.119200  0.283100  0.272000  1.0  0.1109
  H  H36  1  0.117500  0.349200  0.578000  1.0  0.112
  H  H37  1  0.649800  0.546500  0.835000  1.0  0.1237
  H  H38  1  0.722500  0.546700  0.522000  1.0  0.1491
  H  H39  1  0.716900  0.380800  0.522000  1.0  0.1135
  H  H40  1  0.650800  0.382500  0.828000  1.0  0.1122
  H  H41  1  0.149800  0.046500  0.335000  1.0  0.1237
  H  H42  1  0.222500  0.046700  0.022000  1.0  0.1491
  H  H43  1  0.216900  0.880800  0.022000  1.0  0.1135
  H  H44  1  0.150800  0.882500  0.328000  1.0  0.1122
  H  H45  1  0.350200  0.453500  0.835000  1.0  0.1236
  H  H46  1  0.277500  0.453300  0.522000  1.0  0.1485
  H  H47  1  0.283100  0.619200  0.522000  1.0  0.1138
  H  H48  1  0.349200  0.617500  0.828000  1.0  0.1125
  H  H49  1  0.850200  0.953500  0.335000  1.0  0.1236
  H  H50  1  0.777500  0.953300  0.022000  1.0  0.1485
  H  H51  1  0.783100  0.119200  0.022000  1.0  0.1138
  H  H52  1  0.849200  0.117500  0.328000  1.0  0.1125
  H  H53  1  0.953500  0.149800  0.665000  1.0  0.1247
  H  H54  1  0.953300  0.222500  0.978000  1.0  0.1468
  H  H55  1  0.119200  0.216900  0.978000  1.0  0.1105
  H  H56  1  0.117500  0.150800  0.672000  1.0  0.1124
  H  H57  1  0.453500  0.649800  0.165000  1.0  0.1247
  H  H58  1  0.453300  0.722500  0.478000  1.0  0.1468
  H  H59  1  0.619200  0.716900  0.478000  1.0  0.1105
  H  H60  1  0.617500  0.650800  0.172000  1.0  0.1124
  H  H61  1  0.046500  0.850200  0.665000  1.0  0.125
  H  H62  1  0.046700  0.777500  0.978000  1.0  0.148
  H  H63  1  0.880800  0.783100  0.978000  1.0  0.1107
  H  H64  1  0.882500  0.849200  0.672000  1.0  0.1124
  H  H65  1  0.546500  0.350200  0.165000  1.0  0.125
  H  H66  1  0.546700  0.277500  0.478000  1.0  0.148
  H  H67  1  0.380800  0.283100  0.478000  1.0  0.1107
  H  H68  1  0.382500  0.349200  0.172000  1.0  0.1124
  C  C69  1  0.855300  0.465300  0.881900  1.0  0.0245
  C  C70  1  0.835600  0.513300  0.976000  1.0  -0.1369
  C  C71  1  0.792300  0.513400  0.170000  1.0  -0.1129
  C  C72  1  0.771800  0.464500  0.273200  1.0  0.0428
  C  C73  1  0.795900  0.414700  0.166000  1.0  -0.1159
  C  C74  1  0.834700  0.415700  0.985000  1.0  -0.1187
  C  C75  1  0.896600  0.468200  0.676700  1.0  0.3631
  C  C76  1  0.355300  0.965300  0.381900  1.0  0.0245
  C  C77  1  0.335600  0.013300  0.476000  1.0  -0.1369
  C  C78  1  0.292300  0.013400  0.670000  1.0  -0.1129
  C  C79  1  0.271800  0.964500  0.773200  1.0  0.0428
  C  C80  1  0.295900  0.914700  0.666000  1.0  -0.1159
  C  C81  1  0.334700  0.915700  0.485000  1.0  -0.1187
  C  C82  1  0.396600  0.968200  0.176700  1.0  0.3631
  C  C83  1  0.144700  0.534700  0.881900  1.0  0.0241
  C  C84  1  0.164400  0.486700  0.976000  1.0  -0.1378
  C  C85  1  0.207700  0.486600  0.170000  1.0  -0.1134
  C  C86  1  0.228200  0.535500  0.273200  1.0  0.043
  C  C87  1  0.204100  0.585300  0.166000  1.0  -0.1162
  C  C88  1  0.165300  0.584300  0.985000  1.0  -0.1192
  C  C89  1  0.103400  0.531800  0.676700  1.0  0.3637
  C  C90  1  0.644700  0.034700  0.381900  1.0  0.0241
  C  C91  1  0.664400  0.986700  0.476000  1.0  -0.1378
  C  C92  1  0.707700  0.986600  0.670000  1.0  -0.1134
  C  C93  1  0.728200  0.035500  0.773200  1.0  0.043
  C  C94  1  0.704100  0.085300  0.666000  1.0  -0.1162
  C  C95  1  0.665300  0.084300  0.485000  1.0  -0.1192
  C  C96  1  0.603400  0.031800  0.176700  1.0  0.3637
  C  C97  1  0.465300  0.144700  0.118100  1.0  0.029
  C  C98  1  0.513300  0.164400  0.024000  1.0  -0.1338
  C  C99  1  0.513400  0.207700  0.830000  1.0  -0.1105
  C  C100  1  0.464500  0.228200  0.726800  1.0  0.043
  C  C101  1  0.414700  0.204100  0.834000  1.0  -0.1125
  C  C102  1  0.415700  0.165300  0.015000  1.0  -0.1136
  C  C103  1  0.468200  0.103400  0.323300  1.0  0.3638
  C  C104  1  0.965300  0.644700  0.618100  1.0  0.029
  C  C105  1  0.013300  0.664400  0.524000  1.0  -0.1338
  C  C106  1  0.013400  0.707700  0.330000  1.0  -0.1105
  C  C107  1  0.964500  0.728200  0.226800  1.0  0.043
  C  C108  1  0.914700  0.704100  0.334000  1.0  -0.1125
  C  C109  1  0.915700  0.665300  0.515000  1.0  -0.1136
  C  C110  1  0.968200  0.603400  0.823300  1.0  0.3638
  C  C111  1  0.534700  0.855300  0.118100  1.0  0.029
  C  C112  1  0.486700  0.835600  0.024000  1.0  -0.1345
  C  C113  1  0.486600  0.792300  0.830000  1.0  -0.1088
  C  C114  1  0.535500  0.771800  0.726800  1.0  0.0435
  C  C115  1  0.585300  0.795900  0.834000  1.0  -0.1104
  C  C116  1  0.584300  0.834700  0.015000  1.0  -0.1138
  C  C117  1  0.531800  0.896600  0.323300  1.0  0.3632
  C  C118  1  0.034700  0.355300  0.618100  1.0  0.029
  C  C119  1  0.986700  0.335600  0.524000  1.0  -0.1345
  C  C120  1  0.986600  0.292300  0.330000  1.0  -0.1088
  C  C121  1  0.035500  0.271800  0.226800  1.0  0.0435
  C  C122  1  0.085300  0.295900  0.334000  1.0  -0.1104
  C  C123  1  0.084300  0.334700  0.515000  1.0  -0.1138
  C  C124  1  0.031800  0.396600  0.823300  1.0  0.3632
  C  C125  1  0.644700  0.465300  0.868100  1.0  0.0233
  C  C126  1  0.664400  0.513300  0.774000  1.0  -0.1372
  C  C127  1  0.707700  0.513400  0.580000  1.0  -0.1149
  C  C128  1  0.728200  0.464500  0.476800  1.0  0.0432
  C  C129  1  0.704100  0.414700  0.584000  1.0  -0.1151
  C  C130  1  0.665300  0.415700  0.765000  1.0  -0.1188
  C  C131  1  0.603400  0.468200  0.073300  1.0  0.3633
  C  C132  1  0.144700  0.965300  0.368100  1.0  0.0233
  C  C133  1  0.164400  0.013300  0.274000  1.0  -0.1372
  C  C134  1  0.207700  0.013400  0.080000  1.0  -0.1149
  C  C135  1  0.228200  0.964500  0.976800  1.0  0.0432
  C  C136  1  0.204100  0.914700  0.084000  1.0  -0.1151
  C  C137  1  0.165300  0.915700  0.265000  1.0  -0.1188
  C  C138  1  0.103400  0.968200  0.573300  1.0  0.3633
  C  C139  1  0.355300  0.534700  0.868100  1.0  0.0244
  C  C140  1  0.335600  0.486700  0.774000  1.0  -0.1382
  C  C141  1  0.292300  0.486600  0.580000  1.0  -0.1133
  C  C142  1  0.271800  0.535500  0.476800  1.0  0.043
  C  C143  1  0.295900  0.585300  0.584000  1.0  -0.1163
  C  C144  1  0.334700  0.584300  0.765000  1.0  -0.1186
  C  C145  1  0.396600  0.531800  0.073300  1.0  0.3634
  C  C146  1  0.855300  0.034700  0.368100  1.0  0.0244
  C  C147  1  0.835600  0.986700  0.274000  1.0  -0.1382
  C  C148  1  0.792300  0.986600  0.080000  1.0  -0.1133
  C  C149  1  0.771800  0.035500  0.976800  1.0  0.043
  C  C150  1  0.795900  0.085300  0.084000  1.0  -0.1163
  C  C151  1  0.834700  0.084300  0.265000  1.0  -0.1186
  C  C152  1  0.896600  0.031800  0.573300  1.0  0.3634
  C  C153  1  0.034700  0.144700  0.631900  1.0  0.0284
  C  C154  1  0.986700  0.164400  0.726000  1.0  -0.1344
  C  C155  1  0.986600  0.207700  0.920000  1.0  -0.1095
  C  C156  1  0.035500  0.228200  0.023200  1.0  0.043
  C  C157  1  0.085300  0.204100  0.916000  1.0  -0.1105
  C  C158  1  0.084300  0.165300  0.735000  1.0  -0.1138
  C  C159  1  0.031800  0.103400  0.426700  1.0  0.363
  C  C160  1  0.534700  0.644700  0.131900  1.0  0.0284
  C  C161  1  0.486700  0.664400  0.226000  1.0  -0.1344
  C  C162  1  0.486600  0.707700  0.420000  1.0  -0.1095
  C  C163  1  0.535500  0.728200  0.523200  1.0  0.043
  C  C164  1  0.585300  0.704100  0.416000  1.0  -0.1105
  C  C165  1  0.584300  0.665300  0.235000  1.0  -0.1138
  C  C166  1  0.531800  0.603400  0.926700  1.0  0.363
  C  C167  1  0.965300  0.855300  0.631900  1.0  0.0307
  C  C168  1  0.013300  0.835600  0.726000  1.0  -0.1337
  C  C169  1  0.013400  0.792300  0.920000  1.0  -0.1114
  C  C170  1  0.964500  0.771800  0.023200  1.0  0.0433
  C  C171  1  0.914700  0.795900  0.916000  1.0  -0.1122
  C  C172  1  0.915700  0.834700  0.735000  1.0  -0.1154
  C  C173  1  0.968200  0.896600  0.426700  1.0  0.3635
  C  C174  1  0.465300  0.355300  0.131900  1.0  0.0307
  C  C175  1  0.513300  0.335600  0.226000  1.0  -0.1337
  C  C176  1  0.513400  0.292300  0.420000  1.0  -0.1114
  C  C177  1  0.464500  0.271800  0.523200  1.0  0.0433
  C  C178  1  0.414700  0.295900  0.416000  1.0  -0.1122
  C  C179  1  0.415700  0.334700  0.235000  1.0  -0.1154
  C  C180  1  0.468200  0.396600  0.926700  1.0  0.3635
  N  N181  1  0.929700  0.471000  0.517800  1.0  -0.5388
  N  N182  1  0.429700  0.971000  0.017800  1.0  -0.5388
  N  N183  1  0.070300  0.529000  0.517800  1.0  -0.5386
  N  N184  1  0.570300  0.029000  0.017800  1.0  -0.5386
  N  N185  1  0.471000  0.070300  0.482200  1.0  -0.5394
  N  N186  1  0.971000  0.570300  0.982200  1.0  -0.5394
  N  N187  1  0.529000  0.929700  0.482200  1.0  -0.5432
  N  N188  1  0.029000  0.429700  0.982200  1.0  -0.5432
  N  N189  1  0.570300  0.471000  0.232200  1.0  -0.5364
  N  N190  1  0.070300  0.971000  0.732200  1.0  -0.5364
  N  N191  1  0.429700  0.529000  0.232200  1.0  -0.5363
  N  N192  1  0.929700  0.029000  0.732200  1.0  -0.5363
  N  N193  1  0.029000  0.070300  0.267800  1.0  -0.5428
  N  N194  1  0.529000  0.570300  0.767800  1.0  -0.5428
  N  N195  1  0.971000  0.929700  0.267800  1.0  -0.5451
  N  N196  1  0.471000  0.429700  0.767800  1.0  -0.5451
