# generated using pymatgen
data_Li3CoH21C14N8O3
_symmetry_space_group_name_H-M   'P 1'
_cell_length_a   8.11800000
_cell_length_b   11.56800000
_cell_length_c   14.24400000
_cell_angle_alpha   94.64000000
_cell_angle_beta   97.44000000
_cell_angle_gamma   103.00000000
_symmetry_Int_Tables_number   1
_chemical_formula_structural   Li3CoH21C14N8O3
_chemical_formula_sum   'Li6 Co2 H42 C28 N16 O6'
_cell_volume   1283.97656099
_cell_formula_units_Z   2
loop_
 _symmetry_equiv_pos_site_id
 _symmetry_equiv_pos_as_xyz
  1  'x, y, z'
loop_
 _atom_site_type_symbol
 _atom_site_label
 _atom_site_symmetry_multiplicity
 _atom_site_fract_x
 _atom_site_fract_y
 _atom_site_fract_z
 _atom_site_occupancy
 _atom_site_charge
  Li  Li1  1  0.461000  0.921000  0.414000  1.0  0.8476
  Li  Li2  1  0.842000  0.413000  0.228000  1.0  0.9072
  Li  Li3  1  0.931000  0.239000  0.106000  1.0  0.8526
  Li  Li4  1  0.539000  0.079000  0.586000  1.0  0.8509
  Li  Li5  1  0.158000  0.587000  0.772000  1.0  0.8923
  Li  Li6  1  0.069000  0.761000  0.894000  1.0  0.8541
  Co  Co7  1  0.886900  0.832900  0.205700  1.0  -0.3372
  Co  Co8  1  0.113100  0.167100  0.794300  1.0  -0.3358
  H  H9  1  0.664900  0.112200  0.193400  1.0  0.0266
  H  H10  1  0.369000  0.992300  0.194900  1.0  0.1027
  H  H11  1  0.257400  0.982900  0.096300  1.0  0.1121
  H  H12  1  0.431000  0.946700  0.103400  1.0  0.0927
  H  H13  1  0.429700  0.206700  0.011500  1.0  0.0911
  H  H14  1  0.258500  0.145400  0.043100  1.0  0.1
  H  H15  1  0.373700  0.260500  0.102000  1.0  0.0886
  H  H16  1  0.361000  0.113200  0.336100  1.0  0.0436
  H  H17  1  0.586800  0.425000  0.481800  1.0  0.0956
  H  H18  1  0.533500  0.320500  0.541800  1.0  0.1026
  H  H19  1  0.689000  0.326800  0.487900  1.0  0.1134
  H  H20  1  0.419500  0.323700  0.271300  1.0  0.0992
  H  H21  1  0.265100  0.316000  0.326300  1.0  0.1077
  H  H22  1  0.423000  0.423300  0.351800  1.0  0.1024
  H  H23  1  0.135400  0.422200  0.042500  1.0  0.0608
  H  H24  1  0.365700  0.681800  0.229300  1.0  0.1185
  H  H25  1  0.172400  0.633100  0.232600  1.0  0.0891
  H  H26  1  0.302900  0.560900  0.268500  1.0  0.0932
  H  H27  1  0.430200  0.570900  0.048300  1.0  0.104
  H  H28  1  0.293600  0.642700  0.023200  1.0  0.0934
  H  H29  1  0.435800  0.688600  0.110500  1.0  0.1229
  H  H30  1  0.335100  0.887800  0.806600  1.0  0.0261
  H  H31  1  0.631000  0.007700  0.805100  1.0  0.1041
  H  H32  1  0.742600  0.017100  0.903700  1.0  0.1109
  H  H33  1  0.569000  0.053300  0.896600  1.0  0.092
  H  H34  1  0.570300  0.793300  0.988500  1.0  0.0921
  H  H35  1  0.741500  0.854600  0.956900  1.0  0.0997
  H  H36  1  0.626300  0.739500  0.898000  1.0  0.0856
  H  H37  1  0.639000  0.886800  0.663900  1.0  0.0424
  H  H38  1  0.413200  0.575000  0.518200  1.0  0.0944
  H  H39  1  0.466500  0.679500  0.458200  1.0  0.1022
  H  H40  1  0.311000  0.673200  0.512100  1.0  0.1137
  H  H41  1  0.580500  0.676300  0.728700  1.0  0.096
  H  H42  1  0.734900  0.684000  0.673700  1.0  0.1097
  H  H43  1  0.577000  0.576700  0.648200  1.0  0.1001
  H  H44  1  0.864600  0.577800  0.957500  1.0  0.0606
  H  H45  1  0.634300  0.318200  0.770700  1.0  0.1188
  H  H46  1  0.827600  0.366900  0.767400  1.0  0.0949
  H  H47  1  0.697100  0.439100  0.731500  1.0  0.0919
  H  H48  1  0.569800  0.429100  0.951700  1.0  0.1033
  H  H49  1  0.706400  0.357300  0.976800  1.0  0.0938
  H  H50  1  0.564200  0.311400  0.889500  1.0  0.1194
  C  C51  1  0.933000  0.999000  0.184600  1.0  0.1855
  C  C52  1  0.986000  0.800000  0.099000  1.0  0.2159
  C  C53  1  0.814000  0.665000  0.211000  1.0  0.2451
  C  C54  1  0.738000  0.863000  0.293200  1.0  0.1845
  C  C55  1  0.101000  0.857000  0.298000  1.0  0.1804
  C  C56  1  0.614000  0.164000  0.157000  1.0  0.3788
  C  C57  1  0.371000  0.000000  0.129000  1.0  -0.2069
  C  C58  1  0.373000  0.188000  0.065000  1.0  -0.1831
  C  C59  1  0.435000  0.155000  0.392000  1.0  0.43
  C  C60  1  0.579000  0.342000  0.486000  1.0  -0.1758
  C  C61  1  0.386000  0.340000  0.332000  1.0  -0.1843
  C  C62  1  0.144000  0.458000  0.106000  1.0  0.3843
  C  C63  1  0.276000  0.612000  0.223000  1.0  -0.2052
  C  C64  1  0.363000  0.620000  0.074000  1.0  -0.2147
  C  C65  1  0.067000  0.001000  0.815400  1.0  0.1922
  C  C66  1  0.014000  0.200000  0.901000  1.0  0.2148
  C  C67  1  0.186000  0.335000  0.789000  1.0  0.2466
  C  C68  1  0.262000  0.137000  0.706800  1.0  0.1803
  C  C69  1  0.899000  0.143000  0.702000  1.0  0.1823
  C  C70  1  0.386000  0.836000  0.843000  1.0  0.3776
  C  C71  1  0.629000  0.000000  0.871000  1.0  -0.2052
  C  C72  1  0.627000  0.812000  0.935000  1.0  -0.187
  C  C73  1  0.565000  0.845000  0.608000  1.0  0.4301
  C  C74  1  0.421000  0.658000  0.514000  1.0  -0.1759
  C  C75  1  0.614000  0.660000  0.668000  1.0  -0.1864
  C  C76  1  0.856000  0.542000  0.894000  1.0  0.3872
  C  C77  1  0.724000  0.388000  0.777000  1.0  -0.2047
  C  C78  1  0.637000  0.380000  0.926000  1.0  -0.2139
  N  N79  1  0.966000  0.098000  0.169500  1.0  -0.6396
  N  N80  1  0.039000  0.778000  0.029400  1.0  -0.627
  N  N81  1  0.772000  0.564000  0.213400  1.0  -0.6899
  N  N82  1  0.643000  0.881000  0.343500  1.0  -0.6083
  N  N83  1  0.228000  0.868000  0.346300  1.0  -0.3984
  N  N84  1  0.456000  0.121000  0.119000  1.0  -0.0019
  N  N85  1  0.466000  0.273000  0.402600  1.0  -0.1245
  N  N86  1  0.256000  0.553000  0.133300  1.0  0.045
  N  N87  1  0.034000  0.902000  0.830500  1.0  -0.641
  N  N88  1  0.961000  0.222000  0.970600  1.0  -0.6256
  N  N89  1  0.228000  0.436000  0.786600  1.0  -0.6407
  N  N90  1  0.357000  0.119000  0.656500  1.0  -0.612
  N  N91  1  0.772000  0.132000  0.653700  1.0  -0.4017
  N  N92  1  0.544000  0.879000  0.881000  1.0  -0.0051
  N  N93  1  0.534000  0.727000  0.597400  1.0  -0.1241
  N  N94  1  0.744000  0.447000  0.866700  1.0  0.0455
  O  O95  1  0.707000  0.262400  0.152700  1.0  -0.7371
  O  O96  1  0.494000  0.097200  0.448500  1.0  -0.6819
  O  O97  1  0.040000  0.406000  0.161500  1.0  -0.815
  O  O98  1  0.293000  0.737600  0.847300  1.0  -0.7376
  O  O99  1  0.506000  0.902800  0.551500  1.0  -0.6811
  O  O100  1  0.960000  0.594000  0.838500  1.0  -0.8142
