# generated using pymatgen
data_Co3H42C66(N4O3)4
_symmetry_space_group_name_H-M   'P 1'
_cell_length_a   13.27930000
_cell_length_b   15.44140000
_cell_length_c   18.46300000
_cell_angle_alpha   105.48300000
_cell_angle_beta   90.00000000
_cell_angle_gamma   115.46700000
_symmetry_Int_Tables_number   1
_chemical_formula_structural   Co3H42C66(N4O3)4
_chemical_formula_sum   'Co6 H84 C132 N32 O24'
_cell_volume   3265.16439232
_cell_formula_units_Z   2
loop_
 _symmetry_equiv_pos_site_id
 _symmetry_equiv_pos_as_xyz
  1  'x, y, z'
loop_
 _atom_site_type_symbol
 _atom_site_label
 _atom_site_symmetry_multiplicity
 _atom_site_fract_x
 _atom_site_fract_y
 _atom_site_fract_z
 _atom_site_occupancy
 _atom_site_charge
  Co  Co1  1  0.243050  0.566100  0.964300  1.0  0.9288
  Co  Co2  1  0.676950  0.433900  0.535700  1.0  0.929
  Co  Co3  1  0.614160  0.000000  0.750000  1.0  0.9592
  Co  Co4  1  0.756950  0.433900  0.035700  1.0  0.9312
  Co  Co5  1  0.323050  0.566100  0.464300  1.0  0.9311
  Co  Co6  1  0.385840  0.000000  0.250000  1.0  0.9583
  H  H7  1  0.745200  0.253200  0.641100  1.0  0.1046
  H  H8  1  0.018500  0.516600  0.719500  1.0  0.1068
  H  H9  1  0.953600  0.302800  0.820100  1.0  0.0964
  H  H10  1  0.032400  0.613400  0.025000  1.0  0.1003
  H  H11  1  0.029000  0.772600  0.035000  1.0  0.1264
  H  H12  1  0.329100  0.795600  0.992800  1.0  0.0921
  H  H13  1  0.140300  0.962400  0.088500  1.0  0.1107
  H  H14  1  0.348900  0.185600  0.009800  1.0  0.1171
  H  H15  1  0.332000  0.910600  0.931000  1.0  0.1253
  H  H16  1  0.487500  0.980200  0.887700  1.0  0.0946
  H  H17  1  0.560200  0.203600  0.806100  1.0  0.1011
  H  H18  1  0.433500  0.214200  0.898500  1.0  0.1301
  H  H19  1  0.132600  0.078400  0.179100  1.0  0.1061
  H  H20  1  0.109300  0.338000  0.227800  1.0  0.125
  H  H21  1  0.246800  0.256400  0.044700  1.0  0.1122
  H  H22  1  0.227600  0.505200  0.219300  1.0  0.1313
  H  H23  1  0.260100  0.622800  0.146300  1.0  0.0964
  H  H24  1  0.199700  0.364400  0.002800  1.0  0.0987
  H  H25  1  0.958200  0.029600  0.247500  1.0  0.2404
  H  H26  1  0.944100  0.062600  0.386900  1.0  0.098
  H  H27  1  0.136200  0.316400  0.355600  1.0  0.082
  H  H28  1  0.492000  0.746800  0.858900  1.0  0.1051
  H  H29  1  0.501900  0.483400  0.780500  1.0  0.1074
  H  H30  1  0.650800  0.697200  0.679900  1.0  0.0964
  H  H31  1  0.419000  0.386600  0.475000  1.0  0.1005
  H  H32  1  0.256400  0.227400  0.465000  1.0  0.1267
  H  H33  1  0.533500  0.204400  0.507200  1.0  0.0925
  H  H34  1  0.177900  0.037600  0.411500  1.0  0.1116
  H  H35  1  0.163300  0.814400  0.490200  1.0  0.1173
  H  H36  1  0.421400  0.089400  0.569000  1.0  0.1256
  H  H37  1  0.507300  0.019800  0.612300  1.0  0.0941
  H  H38  1  0.356600  0.796400  0.693900  1.0  0.1013
  H  H39  1  0.219300  0.785800  0.601500  1.0  0.1301
  H  H40  1  0.054200  0.921600  0.320900  1.0  0.1064
  H  H41  1  0.771300  0.662000  0.272200  1.0  0.1251
  H  H42  1  0.990400  0.743600  0.455300  1.0  0.1122
  H  H43  1  0.722400  0.494800  0.280700  1.0  0.1308
  H  H44  1  0.637300  0.377200  0.353700  1.0  0.0967
  H  H45  1  0.835300  0.635600  0.497200  1.0  0.0978
  H  H46  1  0.928600  0.970400  0.252500  1.0  0.2368
  H  H47  1  0.881500  0.937400  0.113100  1.0  0.0969
  H  H48  1  0.819800  0.683600  0.144400  1.0  0.0823
  H  H49  1  0.254800  0.746800  0.358900  1.0  0.1053
  H  H50  1  0.981500  0.483400  0.280500  1.0  0.1072
  H  H51  1  0.046400  0.697200  0.179900  1.0  0.0969
  H  H52  1  0.967600  0.386600  0.975000  1.0  0.1003
  H  H53  1  0.971000  0.227400  0.965000  1.0  0.1277
  H  H54  1  0.670900  0.204400  0.007200  1.0  0.0919
  H  H55  1  0.859700  0.037600  0.911500  1.0  0.1113
  H  H56  1  0.651100  0.814400  0.990200  1.0  0.1172
  H  H57  1  0.668000  0.089400  0.069000  1.0  0.1255
  H  H58  1  0.512500  0.019800  0.112300  1.0  0.094
  H  H59  1  0.439800  0.796400  0.193900  1.0  0.1006
  H  H60  1  0.566500  0.785800  0.101500  1.0  0.1302
  H  H61  1  0.867400  0.921600  0.820900  1.0  0.1064
  H  H62  1  0.890700  0.662000  0.772200  1.0  0.1249
  H  H63  1  0.753200  0.743600  0.955300  1.0  0.1125
  H  H64  1  0.772400  0.494800  0.780700  1.0  0.1305
  H  H65  1  0.739900  0.377200  0.853700  1.0  0.0968
  H  H66  1  0.800300  0.635600  0.997200  1.0  0.0979
  H  H67  1  0.041800  0.970400  0.752500  1.0  0.2375
  H  H68  1  0.055900  0.937400  0.613100  1.0  0.097
  H  H69  1  0.863800  0.683600  0.644400  1.0  0.0821
  H  H70  1  0.508000  0.253200  0.141100  1.0  0.1052
  H  H71  1  0.498100  0.516600  0.219500  1.0  0.1066
  H  H72  1  0.349200  0.302800  0.320100  1.0  0.0967
  H  H73  1  0.581000  0.613400  0.525000  1.0  0.1001
  H  H74  1  0.743600  0.772600  0.535000  1.0  0.1272
  H  H75  1  0.466500  0.795600  0.492800  1.0  0.0916
  H  H76  1  0.822100  0.962400  0.588500  1.0  0.1108
  H  H77  1  0.836700  0.185600  0.509800  1.0  0.1171
  H  H78  1  0.578600  0.910600  0.431000  1.0  0.125
  H  H79  1  0.492700  0.980200  0.387700  1.0  0.0944
  H  H80  1  0.643400  0.203600  0.306100  1.0  0.1012
  H  H81  1  0.780700  0.214200  0.398500  1.0  0.1297
  H  H82  1  0.945800  0.078400  0.679100  1.0  0.1059
  H  H83  1  0.228700  0.338000  0.727800  1.0  0.1246
  H  H84  1  0.009600  0.256400  0.544700  1.0  0.1126
  H  H85  1  0.277600  0.505200  0.719300  1.0  0.1309
  H  H86  1  0.362700  0.622800  0.646300  1.0  0.0965
  H  H87  1  0.164700  0.364400  0.502800  1.0  0.0989
  H  H88  1  0.071400  0.029600  0.747500  1.0  0.2402
  H  H89  1  0.118500  0.062600  0.886900  1.0  0.0981
  H  H90  1  0.180200  0.316400  0.855600  1.0  0.082
  C  C91  1  0.763670  0.159140  0.736400  1.0  0.67
  C  C92  1  0.838540  0.261280  0.731200  1.0  -0.1776
  C  C93  1  0.809760  0.295320  0.675600  1.0  -0.0021
  C  C94  1  0.875640  0.390480  0.671000  1.0  -0.1804
  C  C95  1  0.837270  0.427940  0.614900  1.0  0.6734
  C  C96  1  0.972840  0.452680  0.722700  1.0  -0.0133
  C  C97  1  0.001910  0.420620  0.778500  1.0  -0.1582
  C  C98  1  0.934290  0.324780  0.782400  1.0  -0.0359
  C  C99  1  0.103160  0.488720  0.835900  1.0  0.6624
  C  C100  1  0.092260  0.670520  0.019400  1.0  0.0484
  C  C101  1  0.089680  0.758160  0.025200  1.0  -0.1424
  C  C102  1  0.254390  0.769380  0.001800  1.0  0.1578
  C  C103  1  0.233560  0.923120  0.012800  1.0  0.1527
  C  C104  1  0.194160  0.985920  0.057200  1.0  -0.1752
  C  C105  1  0.235080  0.084560  0.055200  1.0  -0.0069
  C  C106  1  0.317670  0.118740  0.009500  1.0  -0.1763
  C  C107  1  0.353550  0.053700  0.963600  1.0  0.1332
  C  C108  1  0.310150  0.954900  0.963500  1.0  -0.2326
  C  C109  1  0.489720  0.037240  0.878300  1.0  0.152
  C  C110  1  0.529020  0.159040  0.834400  1.0  0.0375
  C  C111  1  0.459260  0.165520  0.885000  1.0  -0.1669
  C  C112  1  0.194120  0.154040  0.102700  1.0  0.0164
  C  C113  1  0.144380  0.136360  0.166900  1.0  -0.204
  C  C114  1  0.112560  0.203920  0.212200  1.0  0.152
  C  C115  1  0.130260  0.292120  0.196500  1.0  -0.2262
  C  C116  1  0.180080  0.309360  0.132800  1.0  0.1257
  C  C117  1  0.212310  0.242420  0.086900  1.0  -0.196
  C  C118  1  0.225440  0.491080  0.167000  1.0  -0.1452
  C  C119  1  0.243350  0.555500  0.126100  1.0  0.0535
  C  C120  1  0.210160  0.414520  0.047500  1.0  0.1458
  C  C121  1  0.993200  0.090400  0.285700  1.0  -0.0577
  C  C122  1  0.985200  0.110400  0.363200  1.0  -0.0186
  C  C123  1  0.090800  0.247800  0.345700  1.0  0.1853
  C  C124  1  0.604530  0.840860  0.763600  1.0  0.6712
  C  C125  1  0.577260  0.738720  0.768800  1.0  -0.1773
  C  C126  1  0.514440  0.704680  0.824400  1.0  -0.0016
  C  C127  1  0.485160  0.609520  0.829000  1.0  -0.1814
  C  C128  1  0.409330  0.572060  0.885100  1.0  0.6707
  C  C129  1  0.520160  0.547320  0.777300  1.0  -0.0129
  C  C130  1  0.581290  0.579380  0.721500  1.0  -0.1586
  C  C131  1  0.609510  0.675220  0.717600  1.0  -0.034
  C  C132  1  0.614440  0.511280  0.664100  1.0  0.6623
  C  C133  1  0.421740  0.329480  0.480600  1.0  0.0493
  C  C134  1  0.331520  0.241840  0.474800  1.0  -0.1417
  C  C135  1  0.485010  0.230620  0.498200  1.0  0.1582
  C  C136  1  0.310440  0.076880  0.487200  1.0  0.1525
  C  C137  1  0.208240  0.014080  0.442800  1.0  -0.1762
  C  C138  1  0.150520  0.915440  0.444800  1.0  -0.0069
  C  C139  1  0.198930  0.881260  0.490500  1.0  -0.1757
  C  C140  1  0.299850  0.946300  0.536400  1.0  0.1334
  C  C141  1  0.355250  0.045100  0.536500  1.0  -0.2314
  C  C142  1  0.452480  0.962760  0.621700  1.0  0.1517
  C  C143  1  0.369980  0.840960  0.665600  1.0  0.0372
  C  C144  1  0.293740  0.834480  0.615000  1.0  -0.1664
  C  C145  1  0.040080  0.845960  0.397300  1.0  0.017
  C  C146  1  0.008020  0.863640  0.333100  1.0  -0.2045
  C  C147  1  0.908640  0.796080  0.287800  1.0  0.1522
  C  C148  1  0.838140  0.707880  0.303500  1.0  -0.226
  C  C149  1  0.870720  0.690640  0.367200  1.0  0.1261
  C  C150  1  0.969890  0.757580  0.413100  1.0  -0.1946
  C  C151  1  0.734360  0.508920  0.333000  1.0  -0.1462
  C  C152  1  0.687850  0.444500  0.373900  1.0  0.053
  C  C153  1  0.795640  0.585480  0.452500  1.0  0.1463
  C  C154  1  0.902800  0.909600  0.214300  1.0  -0.0583
  C  C155  1  0.874800  0.889600  0.136800  1.0  -0.0197
  C  C156  1  0.843000  0.752200  0.154300  1.0  0.1825
  C  C157  1  0.236330  0.840860  0.263600  1.0  0.6715
  C  C158  1  0.161460  0.738720  0.268800  1.0  -0.1768
  C  C159  1  0.190240  0.704680  0.324400  1.0  -0.002
  C  C160  1  0.124360  0.609520  0.329000  1.0  -0.1811
  C  C161  1  0.162730  0.572060  0.385100  1.0  0.6692
  C  C162  1  0.027160  0.547320  0.277300  1.0  -0.0136
  C  C163  1  0.998090  0.579380  0.221500  1.0  -0.1582
  C  C164  1  0.065710  0.675220  0.217600  1.0  -0.0335
  C  C165  1  0.896840  0.511280  0.164100  1.0  0.6624
  C  C166  1  0.907740  0.329480  0.980600  1.0  0.0493
  C  C167  1  0.910320  0.241840  0.974800  1.0  -0.1404
  C  C168  1  0.745610  0.230620  0.998200  1.0  0.1583
  C  C169  1  0.766440  0.076880  0.987200  1.0  0.1521
  C  C170  1  0.805840  0.014080  0.942800  1.0  -0.1755
  C  C171  1  0.764920  0.915440  0.944800  1.0  -0.0066
  C  C172  1  0.682330  0.881260  0.990500  1.0  -0.1758
  C  C173  1  0.646450  0.946300  0.036400  1.0  0.1328
  C  C174  1  0.689850  0.045100  0.036500  1.0  -0.2333
  C  C175  1  0.510280  0.962760  0.121700  1.0  0.1525
  C  C176  1  0.470980  0.840960  0.165600  1.0  0.0375
  C  C177  1  0.540740  0.834480  0.115000  1.0  -0.1651
  C  C178  1  0.805880  0.845960  0.897300  1.0  0.017
  C  C179  1  0.855620  0.863640  0.833100  1.0  -0.2051
  C  C180  1  0.887440  0.796080  0.787800  1.0  0.1521
  C  C181  1  0.869740  0.707880  0.803500  1.0  -0.2282
  C  C182  1  0.819920  0.690640  0.867200  1.0  0.126
  C  C183  1  0.787690  0.757580  0.913100  1.0  -0.1945
  C  C184  1  0.774560  0.508920  0.833000  1.0  -0.1465
  C  C185  1  0.756650  0.444500  0.873900  1.0  0.0536
  C  C186  1  0.789840  0.585480  0.952500  1.0  0.1467
  C  C187  1  0.006800  0.909600  0.714300  1.0  -0.0585
  C  C188  1  0.014800  0.889600  0.636800  1.0  -0.0189
  C  C189  1  0.909200  0.752200  0.654300  1.0  0.1825
  C  C190  1  0.395470  0.159140  0.236400  1.0  0.6711
  C  C191  1  0.422740  0.261280  0.231200  1.0  -0.177
  C  C192  1  0.485560  0.295320  0.175600  1.0  -0.0023
  C  C193  1  0.514840  0.390480  0.171000  1.0  -0.1801
  C  C194  1  0.590670  0.427940  0.114900  1.0  0.6721
  C  C195  1  0.479840  0.452680  0.222700  1.0  -0.0141
  C  C196  1  0.418710  0.420620  0.278500  1.0  -0.1576
  C  C197  1  0.390490  0.324780  0.282400  1.0  -0.0358
  C  C198  1  0.385560  0.488720  0.335900  1.0  0.6622
  C  C199  1  0.578260  0.670520  0.519400  1.0  0.0482
  C  C200  1  0.668480  0.758160  0.525200  1.0  -0.141
  C  C201  1  0.514990  0.769380  0.501800  1.0  0.1578
  C  C202  1  0.689560  0.923120  0.512800  1.0  0.1526
  C  C203  1  0.791760  0.985920  0.557200  1.0  -0.1747
  C  C204  1  0.849480  0.084560  0.555200  1.0  -0.0065
  C  C205  1  0.801070  0.118740  0.509500  1.0  -0.1763
  C  C206  1  0.700150  0.053700  0.463600  1.0  0.1327
  C  C207  1  0.644750  0.954900  0.463500  1.0  -0.2344
  C  C208  1  0.547520  0.037240  0.378300  1.0  0.1528
  C  C209  1  0.630020  0.159040  0.334400  1.0  0.0371
  C  C210  1  0.706260  0.165520  0.385000  1.0  -0.1655
  C  C211  1  0.959920  0.154040  0.602700  1.0  0.017
  C  C212  1  0.991980  0.136360  0.666900  1.0  -0.2041
  C  C213  1  0.091360  0.203920  0.712200  1.0  0.1522
  C  C214  1  0.161860  0.292120  0.696500  1.0  -0.2282
  C  C215  1  0.129280  0.309360  0.632800  1.0  0.1256
  C  C216  1  0.030110  0.242420  0.586900  1.0  -0.1958
  C  C217  1  0.265640  0.491080  0.667000  1.0  -0.1457
  C  C218  1  0.312150  0.555500  0.626100  1.0  0.0541
  C  C219  1  0.204360  0.414520  0.547500  1.0  0.1466
  C  C220  1  0.097200  0.090400  0.785700  1.0  -0.0579
  C  C221  1  0.125200  0.110400  0.863200  1.0  -0.0172
  C  C222  1  0.157000  0.247800  0.845700  1.0  0.1848
  N  N223  1  0.195780  0.677560  0.004000  1.0  -0.379
  N  N224  1  0.193740  0.821480  0.013940  1.0  0.047
  N  N225  1  0.433120  0.086240  0.913290  1.0  0.0324
  N  N226  1  0.548420  0.078240  0.829650  1.0  -0.3799
  N  N227  1  0.203300  0.400800  0.115840  1.0  0.0524
  N  N228  1  0.233590  0.507780  0.050890  1.0  -0.3914
  N  N229  1  0.068120  0.186040  0.279780  1.0  0.0061
  N  N230  1  0.045400  0.207600  0.398100  1.0  -0.3398
  N  N231  1  0.518220  0.322440  0.496000  1.0  -0.3802
  N  N232  1  0.372260  0.178520  0.486060  1.0  0.0473
  N  N233  1  0.346880  0.913760  0.586710  1.0  0.0337
  N  N234  1  0.470180  0.921760  0.670350  1.0  -0.3796
  N  N235  1  0.802500  0.599200  0.384160  1.0  0.0522
  N  N236  1  0.725810  0.492220  0.449110  1.0  -0.3913
  N  N237  1  0.882080  0.813960  0.220220  1.0  0.0072
  N  N238  1  0.837800  0.792400  0.101900  1.0  -0.3397
  N  N239  1  0.804220  0.322440  0.996000  1.0  -0.3813
  N  N240  1  0.806260  0.178520  0.986060  1.0  0.0477
  N  N241  1  0.566880  0.913760  0.086710  1.0  0.0341
  N  N242  1  0.451580  0.921760  0.170350  1.0  -0.3799
  N  N243  1  0.796700  0.599200  0.884160  1.0  0.0521
  N  N244  1  0.766410  0.492220  0.949110  1.0  -0.3913
  N  N245  1  0.931880  0.813960  0.720220  1.0  0.0059
  N  N246  1  0.954600  0.792400  0.601900  1.0  -0.3402
  N  N247  1  0.481780  0.677560  0.504000  1.0  -0.381
  N  N248  1  0.627740  0.821480  0.513940  1.0  0.0473
  N  N249  1  0.653120  0.086240  0.413290  1.0  0.0329
  N  N250  1  0.529820  0.078240  0.329650  1.0  -0.38
  N  N251  1  0.197500  0.400800  0.615840  1.0  0.0524
  N  N252  1  0.274190  0.507780  0.550890  1.0  -0.3911
  N  N253  1  0.117920  0.186040  0.779780  1.0  0.0048
  N  N254  1  0.162200  0.207600  0.898100  1.0  -0.3414
  O  O255  1  0.113290  0.458980  0.892960  1.0  -0.607
  O  O256  1  0.172500  0.568000  0.827890  1.0  -0.5727
  O  O257  1  0.788980  0.122960  0.782140  1.0  -0.5785
  O  O258  1  0.671530  0.109660  0.694060  1.0  -0.5453
  O  O259  1  0.754270  0.363140  0.565190  1.0  -0.6035
  O  O260  1  0.880290  0.518180  0.620800  1.0  -0.594
  O  O261  1  0.654310  0.541020  0.607040  1.0  -0.6077
  O  O262  1  0.604500  0.432000  0.672110  1.0  -0.5716
  O  O263  1  0.666020  0.877040  0.717860  1.0  -0.5795
  O  O264  1  0.561870  0.890340  0.805940  1.0  -0.5453
  O  O265  1  0.391130  0.636860  0.934810  1.0  -0.6041
  O  O266  1  0.362110  0.481820  0.879200  1.0  -0.5939
  O  O267  1  0.886710  0.541020  0.107040  1.0  -0.6085
  O  O268  1  0.827500  0.432000  0.172110  1.0  -0.5721
  O  O269  1  0.211020  0.877040  0.217860  1.0  -0.5791
  O  O270  1  0.328470  0.890340  0.305940  1.0  -0.546
  O  O271  1  0.245730  0.636860  0.434810  1.0  -0.604
  O  O272  1  0.119710  0.481820  0.379200  1.0  -0.5934
  O  O273  1  0.345690  0.458980  0.392960  1.0  -0.6071
  O  O274  1  0.395500  0.568000  0.327890  1.0  -0.5719
  O  O275  1  0.333980  0.122960  0.282140  1.0  -0.5788
  O  O276  1  0.438130  0.109660  0.194060  1.0  -0.5462
  O  O277  1  0.608870  0.363140  0.065190  1.0  -0.6033
  O  O278  1  0.637890  0.518180  0.120800  1.0  -0.5949
