# generated using pymatgen
data_CuH6C6(NO)2
_symmetry_space_group_name_H-M   'P 1'
_cell_length_a   10.99310000
_cell_length_b   10.99310000
_cell_length_c   18.08500000
_cell_angle_alpha   90.00000000
_cell_angle_beta   90.00000000
_cell_angle_gamma   90.00000000
_symmetry_Int_Tables_number   1
_chemical_formula_structural   CuH6C6(NO)2
_chemical_formula_sum   'Cu8 H48 C48 N16 O16'
_cell_volume   2185.54055803
_cell_formula_units_Z   8
loop_
 _symmetry_equiv_pos_site_id
 _symmetry_equiv_pos_as_xyz
  1  'x, y, z'
loop_
 _atom_site_type_symbol
 _atom_site_label
 _atom_site_symmetry_multiplicity
 _atom_site_fract_x
 _atom_site_fract_y
 _atom_site_fract_z
 _atom_site_occupancy
 _atom_site_charge
  Cu  Cu1  1  0.383540  0.108030  0.856120  1.0  0.737
  Cu  Cu2  1  0.592230  0.899330  0.865560  1.0  0.7275
  Cu  Cu3  1  0.616460  0.891970  0.356120  1.0  0.7369
  Cu  Cu4  1  0.407770  0.100670  0.365560  1.0  0.7276
  Cu  Cu5  1  0.891970  0.383540  0.606120  1.0  0.7376
  Cu  Cu6  1  0.100670  0.592230  0.615560  1.0  0.7276
  Cu  Cu7  1  0.108030  0.616460  0.106120  1.0  0.7372
  Cu  Cu8  1  0.899330  0.407770  0.115560  1.0  0.7273
  H  H9  1  0.165900  0.029900  0.709300  1.0  0.1474
  H  H10  1  0.084000  0.933400  0.749300  1.0  0.1183
  H  H11  1  0.141700  0.040600  0.794500  1.0  0.127
  H  H12  1  0.422700  0.581500  0.782900  1.0  0.1146
  H  H13  1  0.515100  0.642200  0.728100  1.0  0.1287
  H  H14  1  0.534400  0.654300  0.813700  1.0  0.1198
  H  H15  1  0.480700  0.332100  0.686200  1.0  0.1373
  H  H16  1  0.413300  0.316700  0.762000  1.0  0.1421
  H  H17  1  0.526100  0.403500  0.756000  1.0  0.1276
  H  H18  1  0.864500  0.992700  0.809200  1.0  0.131
  H  H19  1  0.813200  0.934900  0.736400  1.0  0.1391
  H  H20  1  0.891600  0.053800  0.732600  1.0  0.1149
  H  H21  1  0.834100  0.970100  0.209300  1.0  0.1474
  H  H22  1  0.916000  0.066600  0.249300  1.0  0.117
  H  H23  1  0.858300  0.959400  0.294500  1.0  0.1274
  H  H24  1  0.577300  0.418500  0.282900  1.0  0.1134
  H  H25  1  0.484900  0.357800  0.228100  1.0  0.129
  H  H26  1  0.465600  0.345700  0.313700  1.0  0.1202
  H  H27  1  0.519300  0.667900  0.186200  1.0  0.1376
  H  H28  1  0.586700  0.683300  0.262000  1.0  0.1413
  H  H29  1  0.473900  0.596500  0.256000  1.0  0.1272
  H  H30  1  0.135500  0.007300  0.309200  1.0  0.1305
  H  H31  1  0.186800  0.065100  0.236400  1.0  0.1395
  H  H32  1  0.108400  0.946200  0.232600  1.0  0.1155
  H  H33  1  0.970100  0.165900  0.459300  1.0  0.147
  H  H34  1  0.066600  0.084000  0.499300  1.0  0.1176
  H  H35  1  0.959400  0.141700  0.544500  1.0  0.1283
  H  H36  1  0.418500  0.422700  0.532900  1.0  0.1142
  H  H37  1  0.357800  0.515100  0.478100  1.0  0.1287
  H  H38  1  0.345700  0.534400  0.563700  1.0  0.1199
  H  H39  1  0.667900  0.480700  0.436200  1.0  0.1378
  H  H40  1  0.683300  0.413300  0.512000  1.0  0.1403
  H  H41  1  0.596500  0.526100  0.506000  1.0  0.1269
  H  H42  1  0.007300  0.864500  0.559200  1.0  0.131
  H  H43  1  0.065100  0.813200  0.486400  1.0  0.137
  H  H44  1  0.946200  0.891600  0.482600  1.0  0.1157
  H  H45  1  0.029900  0.834100  0.959300  1.0  0.1466
  H  H46  1  0.933400  0.916000  0.999300  1.0  0.1177
  H  H47  1  0.040600  0.858300  0.044500  1.0  0.1273
  H  H48  1  0.581500  0.577300  0.032900  1.0  0.1138
  H  H49  1  0.642200  0.484900  0.978100  1.0  0.1288
  H  H50  1  0.654300  0.465600  0.063700  1.0  0.1196
  H  H51  1  0.332100  0.519300  0.936200  1.0  0.1378
  H  H52  1  0.316700  0.586700  0.012000  1.0  0.1424
  H  H53  1  0.403500  0.473900  0.006000  1.0  0.1284
  H  H54  1  0.992700  0.135500  0.059200  1.0  0.1304
  H  H55  1  0.934900  0.186800  0.986400  1.0  0.1338
  H  H56  1  0.053800  0.108400  0.982600  1.0  0.1153
  C  C57  1  0.154100  0.984900  0.754200  1.0  -0.4113
  C  C58  1  0.474800  0.650400  0.775000  1.0  -0.3978
  C  C59  1  0.267300  0.906300  0.769800  1.0  0.2912
  C  C60  1  0.404500  0.758000  0.775200  1.0  0.2964
  C  C61  1  0.286800  0.791500  0.745500  1.0  -0.1545
  C  C62  1  0.215900  0.715400  0.696200  1.0  0.6536
  C  C63  1  0.491000  0.328600  0.738900  1.0  -0.4101
  C  C64  1  0.832300  0.009900  0.761000  1.0  -0.4156
  C  C65  1  0.572000  0.226900  0.757900  1.0  0.3056
  C  C66  1  0.715900  0.087200  0.768600  1.0  0.3131
  C  C67  1  0.693200  0.195100  0.733900  1.0  -0.1992
  C  C68  1  0.766600  0.265600  0.682600  1.0  0.6689
  C  C69  1  0.845900  0.015100  0.254200  1.0  -0.4118
  C  C70  1  0.525200  0.349600  0.275000  1.0  -0.3965
  C  C71  1  0.732700  0.093700  0.269800  1.0  0.2928
  C  C72  1  0.595500  0.242000  0.275200  1.0  0.2948
  C  C73  1  0.713200  0.208500  0.245500  1.0  -0.1549
  C  C74  1  0.784100  0.284600  0.196200  1.0  0.6532
  C  C75  1  0.509000  0.671400  0.238900  1.0  -0.41
  C  C76  1  0.167700  0.990100  0.261000  1.0  -0.4155
  C  C77  1  0.428000  0.773100  0.257900  1.0  0.306
  C  C78  1  0.284100  0.912800  0.268600  1.0  0.313
  C  C79  1  0.306800  0.804900  0.233900  1.0  -0.2003
  C  C80  1  0.233400  0.734400  0.182600  1.0  0.6691
  C  C81  1  0.015100  0.154100  0.504200  1.0  -0.4113
  C  C82  1  0.349600  0.474800  0.525000  1.0  -0.3959
  C  C83  1  0.093700  0.267300  0.519800  1.0  0.2935
  C  C84  1  0.242000  0.404500  0.525200  1.0  0.2958
  C  C85  1  0.208500  0.286800  0.495500  1.0  -0.1546
  C  C86  1  0.284600  0.215900  0.446200  1.0  0.6513
  C  C87  1  0.671400  0.491000  0.488900  1.0  -0.4096
  C  C88  1  0.990100  0.832300  0.511000  1.0  -0.4163
  C  C89  1  0.773100  0.572000  0.507900  1.0  0.3071
  C  C90  1  0.912800  0.715900  0.518600  1.0  0.3147
  C  C91  1  0.804900  0.693200  0.483900  1.0  -0.1997
  C  C92  1  0.734400  0.766600  0.432600  1.0  0.667
  C  C93  1  0.984900  0.845900  0.004200  1.0  -0.4115
  C  C94  1  0.650400  0.525200  0.025000  1.0  -0.3963
  C  C95  1  0.906300  0.732700  0.019800  1.0  0.2934
  C  C96  1  0.758000  0.595500  0.025200  1.0  0.297
  C  C97  1  0.791500  0.713200  0.995500  1.0  -0.154
  C  C98  1  0.715400  0.784100  0.946200  1.0  0.6525
  C  C99  1  0.328600  0.509000  0.988900  1.0  -0.4099
  C  C100  1  0.009900  0.167700  0.011000  1.0  -0.4161
  C  C101  1  0.226900  0.428000  0.007900  1.0  0.3072
  C  C102  1  0.087200  0.284100  0.018600  1.0  0.3155
  C  C103  1  0.195100  0.306800  0.983900  1.0  -0.1996
  C  C104  1  0.265600  0.233400  0.932600  1.0  0.6675
  N  N105  1  0.354500  0.952100  0.808600  1.0  -0.3354
  N  N106  1  0.437200  0.859200  0.815800  1.0  -0.3283
  N  N107  1  0.535200  0.135400  0.801500  1.0  -0.3085
  N  N108  1  0.625000  0.046400  0.806900  1.0  -0.3189
  N  N109  1  0.645500  0.047900  0.308600  1.0  -0.3353
  N  N110  1  0.562800  0.140800  0.315800  1.0  -0.3281
  N  N111  1  0.464800  0.864600  0.301500  1.0  -0.3096
  N  N112  1  0.375000  0.953600  0.306900  1.0  -0.3191
  N  N113  1  0.047900  0.354500  0.558600  1.0  -0.3374
  N  N114  1  0.140800  0.437200  0.565800  1.0  -0.3284
  N  N115  1  0.864600  0.535200  0.551500  1.0  -0.3092
  N  N116  1  0.953600  0.625000  0.556900  1.0  -0.3199
  N  N117  1  0.952100  0.645500  0.058600  1.0  -0.3364
  N  N118  1  0.859200  0.562800  0.065800  1.0  -0.3269
  N  N119  1  0.135400  0.464800  0.051500  1.0  -0.3096
  N  N120  1  0.046400  0.375000  0.056900  1.0  -0.32
  O  O121  1  0.114800  0.753100  0.668100  1.0  -0.5778
  O  O122  1  0.250200  0.610600  0.678100  1.0  -0.5625
  O  O123  1  0.732700  0.363700  0.657100  1.0  -0.5543
  O  O124  1  0.871800  0.226400  0.663200  1.0  -0.5668
  O  O125  1  0.885200  0.246900  0.168100  1.0  -0.5758
  O  O126  1  0.749800  0.389400  0.178100  1.0  -0.5623
  O  O127  1  0.267300  0.636300  0.157100  1.0  -0.5534
  O  O128  1  0.128200  0.773600  0.163200  1.0  -0.5674
  O  O129  1  0.246900  0.114800  0.418100  1.0  -0.5773
  O  O130  1  0.389400  0.250200  0.428100  1.0  -0.5606
  O  O131  1  0.636300  0.732700  0.407100  1.0  -0.5541
  O  O132  1  0.773600  0.871800  0.413200  1.0  -0.5656
  O  O133  1  0.753100  0.885200  0.918100  1.0  -0.5772
  O  O134  1  0.610600  0.749800  0.928100  1.0  -0.56
  O  O135  1  0.363700  0.267300  0.907100  1.0  -0.5542
  O  O136  1  0.226400  0.128200  0.913200  1.0  -0.5667
