# generated using pymatgen
data_CuH6C6(NO)2
_symmetry_space_group_name_H-M   'P 1'
_cell_length_a   10.99320000
_cell_length_b   10.99320000
_cell_length_c   18.09280000
_cell_angle_alpha   90.00000000
_cell_angle_beta   90.00000000
_cell_angle_gamma   90.00000000
_symmetry_Int_Tables_number   1
_chemical_formula_structural   CuH6C6(NO)2
_chemical_formula_sum   'Cu8 H48 C48 N16 O16'
_cell_volume   2186.52295373
_cell_formula_units_Z   8
loop_
 _symmetry_equiv_pos_site_id
 _symmetry_equiv_pos_as_xyz
  1  'x, y, z'
loop_
 _atom_site_type_symbol
 _atom_site_label
 _atom_site_symmetry_multiplicity
 _atom_site_fract_x
 _atom_site_fract_y
 _atom_site_fract_z
 _atom_site_occupancy
 _atom_site_charge
  Cu  Cu1  1  0.615990  0.891510  0.143740  1.0  0.7206
  Cu  Cu2  1  0.407730  0.101380  0.134580  1.0  0.7024
  Cu  Cu3  1  0.384010  0.108490  0.643740  1.0  0.7205
  Cu  Cu4  1  0.592270  0.898620  0.634580  1.0  0.7038
  Cu  Cu5  1  0.108490  0.615990  0.393740  1.0  0.72
  Cu  Cu6  1  0.898620  0.407730  0.384580  1.0  0.7033
  Cu  Cu7  1  0.891510  0.384010  0.893740  1.0  0.721
  Cu  Cu8  1  0.101380  0.592270  0.884580  1.0  0.7035
  H  H9  1  0.833300  0.965800  0.283100  1.0  0.1458
  H  H10  1  0.861300  0.972200  0.198300  1.0  0.1388
  H  H11  1  0.913000  0.072000  0.251600  1.0  0.1432
  H  H12  1  0.563000  0.414800  0.202400  1.0  0.143
  H  H13  1  0.444400  0.335700  0.205600  1.0  0.1332
  H  H14  1  0.510600  0.373100  0.278900  1.0  0.1477
  H  H15  1  0.498800  0.647800  0.312200  1.0  0.1448
  H  H16  1  0.480000  0.598200  0.231700  1.0  0.1394
  H  H17  1  0.589600  0.684800  0.249200  1.0  0.1384
  H  H18  1  0.153600  0.028300  0.189400  1.0  0.1479
  H  H19  1  0.100900  0.937900  0.248200  1.0  0.1401
  H  H20  1  0.178900  0.049700  0.273700  1.0  0.1457
  H  H21  1  0.166700  0.034200  0.783100  1.0  0.1458
  H  H22  1  0.138700  0.027800  0.698300  1.0  0.1383
  H  H23  1  0.087000  0.928000  0.751600  1.0  0.1428
  H  H24  1  0.437000  0.585200  0.702400  1.0  0.1428
  H  H25  1  0.555600  0.664300  0.705600  1.0  0.1326
  H  H26  1  0.489400  0.626900  0.778900  1.0  0.1476
  H  H27  1  0.501200  0.352200  0.812200  1.0  0.145
  H  H28  1  0.520000  0.401800  0.731700  1.0  0.1393
  H  H29  1  0.410400  0.315200  0.749200  1.0  0.1385
  H  H30  1  0.846400  0.971700  0.689400  1.0  0.1483
  H  H31  1  0.899100  0.062100  0.748200  1.0  0.14
  H  H32  1  0.821100  0.950300  0.773700  1.0  0.1455
  H  H33  1  0.034200  0.833300  0.533100  1.0  0.1442
  H  H34  1  0.027800  0.861300  0.448300  1.0  0.1393
  H  H35  1  0.928000  0.913000  0.501600  1.0  0.1429
  H  H36  1  0.585200  0.563000  0.452400  1.0  0.1416
  H  H37  1  0.664300  0.444400  0.455600  1.0  0.1325
  H  H38  1  0.626900  0.510600  0.528900  1.0  0.1465
  H  H39  1  0.352200  0.498800  0.562200  1.0  0.1445
  H  H40  1  0.401800  0.480000  0.481700  1.0  0.1395
  H  H41  1  0.315200  0.589600  0.499200  1.0  0.1378
  H  H42  1  0.971700  0.153600  0.439400  1.0  0.1482
  H  H43  1  0.062100  0.100900  0.498200  1.0  0.1406
  H  H44  1  0.950300  0.178900  0.523700  1.0  0.1444
  H  H45  1  0.965800  0.166700  0.033100  1.0  0.1448
  H  H46  1  0.972200  0.138700  0.948300  1.0  0.1393
  H  H47  1  0.072000  0.087000  0.001600  1.0  0.1432
  H  H48  1  0.414800  0.437000  0.952400  1.0  0.1426
  H  H49  1  0.335700  0.555600  0.955600  1.0  0.1338
  H  H50  1  0.373100  0.489400  0.028900  1.0  0.1472
  H  H51  1  0.647800  0.501200  0.062200  1.0  0.1449
  H  H52  1  0.598200  0.520000  0.981700  1.0  0.1403
  H  H53  1  0.684800  0.410400  0.999200  1.0  0.1377
  H  H54  1  0.028300  0.846400  0.939400  1.0  0.1481
  H  H55  1  0.937900  0.899100  0.998200  1.0  0.1398
  H  H56  1  0.049700  0.821100  0.023700  1.0  0.144
  C  C57  1  0.845300  0.019400  0.241900  1.0  -0.4282
  C  C58  1  0.522100  0.350300  0.228100  1.0  -0.4061
  C  C59  1  0.734600  0.093200  0.230500  1.0  0.3727
  C  C60  1  0.594900  0.240800  0.224500  1.0  0.3421
  C  C61  1  0.712100  0.209300  0.254700  1.0  -0.4342
  C  C62  1  0.783100  0.283700  0.303900  1.0  0.6866
  C  C63  1  0.506200  0.666667  0.260500  1.0  -0.3951
  C  C64  1  0.168600  0.989200  0.235900  1.0  -0.4181
  C  C65  1  0.429200  0.774000  0.242800  1.0  0.3389
  C  C66  1  0.282200  0.913300  0.230400  1.0  0.3509
  C  C67  1  0.308300  0.803100  0.265300  1.0  -0.435
  C  C68  1  0.232000  0.736300  0.316400  1.0  0.7017
  C  C69  1  0.154700  0.980600  0.741900  1.0  -0.427
  C  C70  1  0.477900  0.649700  0.728100  1.0  -0.407
  C  C71  1  0.265400  0.906800  0.730500  1.0  0.3726
  C  C72  1  0.405100  0.759200  0.724500  1.0  0.3425
  C  C73  1  0.287900  0.790700  0.754700  1.0  -0.4351
  C  C74  1  0.216900  0.716300  0.803900  1.0  0.6863
  C  C75  1  0.493800  0.333333  0.760500  1.0  -0.3951
  C  C76  1  0.831400  0.010800  0.735900  1.0  -0.4184
  C  C77  1  0.570800  0.226000  0.742800  1.0  0.3387
  C  C78  1  0.717800  0.086700  0.730400  1.0  0.3519
  C  C79  1  0.691700  0.196900  0.765300  1.0  -0.4375
  C  C80  1  0.768000  0.263700  0.816400  1.0  0.7006
  C  C81  1  0.980600  0.845300  0.491900  1.0  -0.429
  C  C82  1  0.649700  0.522100  0.478100  1.0  -0.406
  C  C83  1  0.906800  0.734600  0.480500  1.0  0.3732
  C  C84  1  0.759200  0.594900  0.474500  1.0  0.3425
  C  C85  1  0.790700  0.712100  0.504700  1.0  -0.4347
  C  C86  1  0.716300  0.783100  0.553900  1.0  0.6867
  C  C87  1  0.333333  0.506200  0.510500  1.0  -0.3957
  C  C88  1  0.010800  0.168600  0.485900  1.0  -0.4187
  C  C89  1  0.226000  0.429200  0.492800  1.0  0.339
  C  C90  1  0.086700  0.282200  0.480400  1.0  0.3516
  C  C91  1  0.196900  0.308300  0.515300  1.0  -0.4362
  C  C92  1  0.263700  0.232000  0.566400  1.0  0.7022
  C  C93  1  0.019400  0.154700  0.991900  1.0  -0.4287
  C  C94  1  0.350300  0.477900  0.978100  1.0  -0.4048
  C  C95  1  0.093200  0.265400  0.980500  1.0  0.373
  C  C96  1  0.240800  0.405100  0.974500  1.0  0.3422
  C  C97  1  0.209300  0.287900  0.004700  1.0  -0.4353
  C  C98  1  0.283700  0.216900  0.053900  1.0  0.6872
  C  C99  1  0.666667  0.493800  0.010500  1.0  -0.3958
  C  C100  1  0.989200  0.831400  0.985900  1.0  -0.4182
  C  C101  1  0.774000  0.570800  0.992800  1.0  0.3393
  C  C102  1  0.913300  0.717800  0.980400  1.0  0.3502
  C  C103  1  0.803100  0.691700  0.015300  1.0  -0.4343
  C  C104  1  0.736300  0.768000  0.066400  1.0  0.7019
  N  N105  1  0.643400  0.046700  0.192500  1.0  -0.3021
  N  N106  1  0.561600  0.141700  0.183700  1.0  -0.3135
  N  N107  1  0.465200  0.863200  0.196900  1.0  -0.3104
  N  N108  1  0.375300  0.954500  0.193200  1.0  -0.3022
  N  N109  1  0.356600  0.953300  0.692500  1.0  -0.3009
  N  N110  1  0.438400  0.858300  0.683700  1.0  -0.3124
  N  N111  1  0.534800  0.136800  0.696900  1.0  -0.3096
  N  N112  1  0.624700  0.045500  0.693200  1.0  -0.3025
  N  N113  1  0.953300  0.643400  0.442500  1.0  -0.3021
  N  N114  1  0.858300  0.561600  0.433700  1.0  -0.3118
  N  N115  1  0.136800  0.465200  0.446900  1.0  -0.309
  N  N116  1  0.045500  0.375300  0.443200  1.0  -0.3032
  N  N117  1  0.046700  0.356600  0.942500  1.0  -0.303
  N  N118  1  0.141700  0.438400  0.933700  1.0  -0.3118
  N  N119  1  0.863200  0.534800  0.946900  1.0  -0.31
  N  N120  1  0.954500  0.624700  0.943200  1.0  -0.3021
  O  O121  1  0.884900  0.248700  0.329500  1.0  -0.5434
  O  O122  1  0.747200  0.390400  0.324600  1.0  -0.5478
  O  O123  1  0.267700  0.634300  0.343900  1.0  -0.5496
  O  O124  1  0.129100  0.771200  0.335800  1.0  -0.5348
  O  O125  1  0.115100  0.751300  0.829500  1.0  -0.5451
  O  O126  1  0.252800  0.609600  0.824600  1.0  -0.5484
  O  O127  1  0.732300  0.365700  0.843900  1.0  -0.5506
  O  O128  1  0.870900  0.228800  0.835800  1.0  -0.5339
  O  O129  1  0.751300  0.884900  0.579500  1.0  -0.5479
  O  O130  1  0.609600  0.747200  0.574600  1.0  -0.5461
  O  O131  1  0.365700  0.267700  0.593900  1.0  -0.5501
  O  O132  1  0.228800  0.129100  0.585800  1.0  -0.5348
  O  O133  1  0.248700  0.115100  0.079500  1.0  -0.5461
  O  O134  1  0.390400  0.252800  0.074600  1.0  -0.5473
  O  O135  1  0.634300  0.732300  0.093900  1.0  -0.5504
  O  O136  1  0.771200  0.870900  0.085800  1.0  -0.5348
