# generated using pymatgen
data_CuH6C6(NO)2
_symmetry_space_group_name_H-M   'P 1'
_cell_length_a   10.99020000
_cell_length_b   10.99020000
_cell_length_c   18.09400000
_cell_angle_alpha   90.00000000
_cell_angle_beta   90.00000000
_cell_angle_gamma   90.00000000
_symmetry_Int_Tables_number   1
_chemical_formula_structural   CuH6C6(NO)2
_chemical_formula_sum   'Cu8 H48 C48 N16 O16'
_cell_volume   2185.47467135
_cell_formula_units_Z   8
loop_
 _symmetry_equiv_pos_site_id
 _symmetry_equiv_pos_as_xyz
  1  'x, y, z'
loop_
 _atom_site_type_symbol
 _atom_site_label
 _atom_site_symmetry_multiplicity
 _atom_site_fract_x
 _atom_site_fract_y
 _atom_site_fract_z
 _atom_site_occupancy
 _atom_site_charge
  Cu  Cu1  1  0.607760  0.884100  0.143660  1.0  0.6806
  Cu  Cu2  1  0.399090  0.093250  0.134750  1.0  0.6715
  Cu  Cu3  1  0.392240  0.115900  0.643660  1.0  0.6804
  Cu  Cu4  1  0.600910  0.906750  0.634750  1.0  0.6726
  Cu  Cu5  1  0.115900  0.607760  0.893660  1.0  0.6809
  Cu  Cu6  1  0.906750  0.399090  0.884750  1.0  0.672
  Cu  Cu7  1  0.884100  0.392240  0.393660  1.0  0.6805
  Cu  Cu8  1  0.093250  0.600910  0.384750  1.0  0.6723
  H  H9  1  0.818800  0.959600  0.308900  1.0  0.1473
  H  H10  1  0.838000  0.929000  0.225100  1.0  0.1395
  H  H11  1  0.904800  0.040800  0.260400  1.0  0.1453
  H  H12  1  0.541200  0.380400  0.278100  1.0  0.1348
  H  H13  1  0.513500  0.376100  0.193200  1.0  0.1434
  H  H14  1  0.427000  0.309600  0.249000  1.0  0.1394
  H  H15  1  0.450400  0.608800  0.284800  1.0  0.1324
  H  H16  1  0.488400  0.606600  0.201300  1.0  0.142
  H  H17  1  0.565700  0.680800  0.258500  1.0  0.1363
  H  H18  1  0.082000  0.928500  0.214200  1.0  0.1376
  H  H19  1  0.139800  0.009600  0.276200  1.0  0.1472
  H  H20  1  0.157900  0.044100  0.192900  1.0  0.1437
  H  H21  1  0.181200  0.040400  0.808900  1.0  0.1464
  H  H22  1  0.162000  0.071000  0.725100  1.0  0.1398
  H  H23  1  0.095200  0.959200  0.760400  1.0  0.1422
  H  H24  1  0.458800  0.619600  0.778100  1.0  0.1352
  H  H25  1  0.486500  0.623900  0.693200  1.0  0.1438
  H  H26  1  0.573000  0.690400  0.749000  1.0  0.1396
  H  H27  1  0.549600  0.391200  0.784800  1.0  0.1313
  H  H28  1  0.511600  0.393400  0.701300  1.0  0.142
  H  H29  1  0.434300  0.319200  0.758500  1.0  0.1383
  H  H30  1  0.918000  0.071500  0.714200  1.0  0.1361
  H  H31  1  0.860200  0.990400  0.776200  1.0  0.1475
  H  H32  1  0.842100  0.955900  0.692900  1.0  0.1431
  H  H33  1  0.040400  0.818800  0.058900  1.0  0.1462
  H  H34  1  0.071000  0.838000  0.975100  1.0  0.1395
  H  H35  1  0.959200  0.904800  0.010400  1.0  0.144
  H  H36  1  0.619600  0.541200  0.028100  1.0  0.1353
  H  H37  1  0.623900  0.513500  0.943200  1.0  0.1428
  H  H38  1  0.690400  0.427000  0.999000  1.0  0.1384
  H  H39  1  0.391200  0.450400  0.034800  1.0  0.1313
  H  H40  1  0.393400  0.488400  0.951300  1.0  0.1416
  H  H41  1  0.319200  0.565700  0.008500  1.0  0.14
  H  H42  1  0.071500  0.082000  0.964200  1.0  0.1378
  H  H43  1  0.990400  0.139800  0.026200  1.0  0.1474
  H  H44  1  0.955900  0.157900  0.942900  1.0  0.1421
  H  H45  1  0.959600  0.181200  0.558900  1.0  0.1464
  H  H46  1  0.929000  0.162000  0.475100  1.0  0.1396
  H  H47  1  0.040800  0.095200  0.510400  1.0  0.1417
  H  H48  1  0.380400  0.458800  0.528100  1.0  0.1353
  H  H49  1  0.376100  0.486500  0.443200  1.0  0.1427
  H  H50  1  0.309600  0.573000  0.499000  1.0  0.1432
  H  H51  1  0.608800  0.549600  0.534800  1.0  0.132
  H  H52  1  0.606600  0.511600  0.451300  1.0  0.1408
  H  H53  1  0.680800  0.434300  0.508500  1.0  0.139
  H  H54  1  0.928500  0.918000  0.464200  1.0  0.1368
  H  H55  1  0.009600  0.860200  0.526200  1.0  0.1472
  H  H56  1  0.044100  0.842100  0.442900  1.0  0.1421
  C  C57  1  0.831300  0.993500  0.260600  1.0  -0.405
  C  C58  1  0.509900  0.331200  0.238600  1.0  -0.407
  C  C59  1  0.727300  0.072200  0.241100  1.0  0.3598
  C  C60  1  0.585700  0.216800  0.231600  1.0  0.3218
  C  C61  1  0.701700  0.188900  0.265400  1.0  -0.4346
  C  C62  1  0.763600  0.268400  0.316300  1.0  0.703
  C  C63  1  0.485000  0.655500  0.245200  1.0  -0.407
  C  C64  1  0.150700  0.977900  0.227200  1.0  -0.4178
  C  C65  1  0.406200  0.767500  0.230900  1.0  0.3342
  C  C66  1  0.260600  0.904600  0.224800  1.0  0.3713
  C  C67  1  0.286900  0.792400  0.254400  1.0  -0.4352
  C  C68  1  0.217700  0.715400  0.304400  1.0  0.6834
  C  C69  1  0.168700  0.006500  0.760600  1.0  -0.4052
  C  C70  1  0.490100  0.668800  0.738600  1.0  -0.4079
  C  C71  1  0.272700  0.927800  0.741100  1.0  0.3603
  C  C72  1  0.414300  0.783200  0.731600  1.0  0.322
  C  C73  1  0.298300  0.811100  0.765400  1.0  -0.4331
  C  C74  1  0.236400  0.731600  0.816300  1.0  0.7038
  C  C75  1  0.515000  0.344500  0.745200  1.0  -0.4065
  C  C76  1  0.849300  0.022100  0.727200  1.0  -0.4185
  C  C77  1  0.593800  0.232500  0.730900  1.0  0.3337
  C  C78  1  0.739400  0.095400  0.724800  1.0  0.3707
  C  C79  1  0.713100  0.207600  0.754400  1.0  -0.4361
  C  C80  1  0.782300  0.284600  0.804400  1.0  0.6832
  C  C81  1  0.006500  0.831300  0.010600  1.0  -0.4044
  C  C82  1  0.668800  0.509900  0.988600  1.0  -0.4067
  C  C83  1  0.927800  0.727300  0.991100  1.0  0.3592
  C  C84  1  0.783200  0.585700  0.981600  1.0  0.3211
  C  C85  1  0.811100  0.701700  0.015400  1.0  -0.433
  C  C86  1  0.731600  0.763600  0.066300  1.0  0.7035
  C  C87  1  0.344500  0.485000  0.995200  1.0  -0.4072
  C  C88  1  0.022100  0.150700  0.977200  1.0  -0.4176
  C  C89  1  0.232500  0.406200  0.980900  1.0  0.3337
  C  C90  1  0.095400  0.260600  0.974800  1.0  0.3706
  C  C91  1  0.207600  0.286900  0.004400  1.0  -0.4356
  C  C92  1  0.284600  0.217700  0.054400  1.0  0.6819
  C  C93  1  0.993500  0.168700  0.510600  1.0  -0.4046
  C  C94  1  0.331200  0.490100  0.488600  1.0  -0.4075
  C  C95  1  0.072200  0.272700  0.491100  1.0  0.359
  C  C96  1  0.216800  0.414300  0.481600  1.0  0.3217
  C  C97  1  0.188900  0.298300  0.515400  1.0  -0.435
  C  C98  1  0.268400  0.236400  0.566300  1.0  0.7019
  C  C99  1  0.655500  0.515000  0.495200  1.0  -0.4059
  C  C100  1  0.977900  0.849300  0.477200  1.0  -0.4197
  C  C101  1  0.767500  0.593800  0.480900  1.0  0.3329
  C  C102  1  0.904600  0.739400  0.474800  1.0  0.3704
  C  C103  1  0.792400  0.713100  0.504400  1.0  -0.435
  C  C104  1  0.715400  0.782300  0.554400  1.0  0.6778
  N  N105  1  0.634700  0.037900  0.197000  1.0  -0.3085
  N  N106  1  0.545400  0.125300  0.193800  1.0  -0.2575
  N  N107  1  0.453800  0.854000  0.192700  1.0  -0.2674
  N  N108  1  0.360100  0.938000  0.183800  1.0  -0.3213
  N  N109  1  0.365300  0.962100  0.697000  1.0  -0.3083
  N  N110  1  0.454600  0.874700  0.693800  1.0  -0.2569
  N  N111  1  0.546200  0.146000  0.692700  1.0  -0.2681
  N  N112  1  0.639900  0.062000  0.683800  1.0  -0.3218
  N  N113  1  0.962100  0.634700  0.947000  1.0  -0.309
  N  N114  1  0.874700  0.545400  0.943800  1.0  -0.2562
  N  N115  1  0.146000  0.453800  0.942700  1.0  -0.2666
  N  N116  1  0.062000  0.360100  0.933800  1.0  -0.3227
  N  N117  1  0.037900  0.365300  0.447000  1.0  -0.3084
  N  N118  1  0.125300  0.454600  0.443800  1.0  -0.2563
  N  N119  1  0.854000  0.546200  0.442700  1.0  -0.2662
  N  N120  1  0.938000  0.639900  0.433800  1.0  -0.3232
  O  O121  1  0.867400  0.228800  0.342100  1.0  -0.5576
  O  O122  1  0.731400  0.368700  0.337100  1.0  -0.5209
  O  O123  1  0.249000  0.617900  0.332000  1.0  -0.5182
  O  O124  1  0.109300  0.755700  0.322700  1.0  -0.5501
  O  O125  1  0.132600  0.771200  0.842100  1.0  -0.5576
  O  O126  1  0.268600  0.631300  0.837100  1.0  -0.518
  O  O127  1  0.751000  0.382100  0.832000  1.0  -0.5205
  O  O128  1  0.890700  0.244300  0.822700  1.0  -0.5502
  O  O129  1  0.771200  0.867400  0.092100  1.0  -0.5613
  O  O130  1  0.631300  0.731400  0.087100  1.0  -0.5188
  O  O131  1  0.382100  0.249000  0.082000  1.0  -0.5208
  O  O132  1  0.244300  0.109300  0.072700  1.0  -0.551
  O  O133  1  0.228800  0.132600  0.592100  1.0  -0.5589
  O  O134  1  0.368700  0.268600  0.587100  1.0  -0.5193
  O  O135  1  0.617900  0.751000  0.582000  1.0  -0.5201
  O  O136  1  0.755700  0.890700  0.572700  1.0  -0.5517
