# generated using pymatgen
data_Zn2H18C28N3O8
_symmetry_space_group_name_H-M   'P 1'
_cell_length_a   28.15700000
_cell_length_b   16.65900000
_cell_length_c   14.55840000
_cell_angle_alpha   90.00000000
_cell_angle_beta   93.28400000
_cell_angle_gamma   90.00000000
_symmetry_Int_Tables_number   1
_chemical_formula_structural   Zn2H18C28N3O8
_chemical_formula_sum   'Zn16 H144 C224 N24 O64'
_cell_volume   6817.65773932
_cell_formula_units_Z   8
loop_
 _symmetry_equiv_pos_site_id
 _symmetry_equiv_pos_as_xyz
  1  'x, y, z'
loop_
 _atom_site_type_symbol
 _atom_site_label
 _atom_site_symmetry_multiplicity
 _atom_site_fract_x
 _atom_site_fract_y
 _atom_site_fract_z
 _atom_site_occupancy
 _atom_site_charge
  Zn  Zn1  1  0.301580  0.147920  0.640980  1.0  0.9764
  Zn  Zn2  1  0.211440  0.247300  0.574950  1.0  1.0095
  Zn  Zn3  1  0.801580  0.647920  0.640980  1.0  0.9764
  Zn  Zn4  1  0.711440  0.747300  0.574950  1.0  1.0095
  Zn  Zn5  1  0.698420  0.147920  0.859020  1.0  0.9744
  Zn  Zn6  1  0.788560  0.247300  0.925050  1.0  1.0107
  Zn  Zn7  1  0.198420  0.647920  0.859020  1.0  0.9744
  Zn  Zn8  1  0.288560  0.747300  0.925050  1.0  1.0107
  Zn  Zn9  1  0.698420  0.852080  0.359020  1.0  0.9741
  Zn  Zn10  1  0.788560  0.752700  0.425050  1.0  1.011
  Zn  Zn11  1  0.198420  0.352080  0.359020  1.0  0.9741
  Zn  Zn12  1  0.288560  0.252700  0.425050  1.0  1.011
  Zn  Zn13  1  0.301580  0.852080  0.140980  1.0  0.9762
  Zn  Zn14  1  0.211440  0.752700  0.074950  1.0  1.0099
  Zn  Zn15  1  0.801580  0.352080  0.140980  1.0  0.9762
  Zn  Zn16  1  0.711440  0.252700  0.074950  1.0  1.0099
  H  H17  1  0.050000  0.893000  0.651300  1.0  0.2725
  H  H18  1  0.995700  0.854200  0.590100  1.0  0.1194
  H  H19  1  0.919900  0.810400  0.546600  1.0  0.1169
  H  H20  1  0.872200  0.033500  0.568500  1.0  0.1151
  H  H21  1  0.947600  0.076600  0.613900  1.0  0.1132
  H  H22  1  0.121400  0.064700  0.659100  1.0  0.1197
  H  H23  1  0.236800  0.948700  0.764100  1.0  0.1046
  H  H24  1  0.113000  0.831600  0.724100  1.0  0.1201
  H  H25  1  0.905500  0.674900  0.631700  1.0  0.0866
  H  H26  1  0.974800  0.602700  0.627300  1.0  0.1286
  H  H27  1  0.899000  0.401200  0.627700  1.0  0.1289
  H  H28  1  0.831200  0.477900  0.629400  1.0  0.0855
  H  H29  1  0.110500  0.232100  0.633500  1.0  0.0827
  H  H30  1  0.043100  0.307300  0.642500  1.0  0.1253
  H  H31  1  0.121900  0.504700  0.614600  1.0  0.1398
  H  H32  1  0.186600  0.423500  0.606300  1.0  0.0771
  H  H33  1  0.982700  0.387500  0.623200  1.0  0.1098
  H  H34  1  0.037100  0.523100  0.627400  1.0  0.106
  H  H35  1  0.550000  0.393000  0.651300  1.0  0.2725
  H  H36  1  0.495700  0.354200  0.590100  1.0  0.1194
  H  H37  1  0.419900  0.310400  0.546600  1.0  0.1169
  H  H38  1  0.372200  0.533500  0.568500  1.0  0.1151
  H  H39  1  0.447600  0.576600  0.613900  1.0  0.1132
  H  H40  1  0.621400  0.564700  0.659100  1.0  0.1197
  H  H41  1  0.736800  0.448700  0.764100  1.0  0.1046
  H  H42  1  0.613000  0.331600  0.724100  1.0  0.1201
  H  H43  1  0.405500  0.174900  0.631700  1.0  0.0866
  H  H44  1  0.474800  0.102700  0.627300  1.0  0.1286
  H  H45  1  0.399000  0.901200  0.627700  1.0  0.1289
  H  H46  1  0.331200  0.977900  0.629400  1.0  0.0855
  H  H47  1  0.610500  0.732100  0.633500  1.0  0.0827
  H  H48  1  0.543100  0.807300  0.642500  1.0  0.1253
  H  H49  1  0.621900  0.004700  0.614600  1.0  0.1398
  H  H50  1  0.686600  0.923500  0.606300  1.0  0.0771
  H  H51  1  0.482700  0.887500  0.623200  1.0  0.1098
  H  H52  1  0.537100  0.023100  0.627400  1.0  0.106
  H  H53  1  0.950000  0.893000  0.848700  1.0  0.2733
  H  H54  1  0.004300  0.854200  0.909900  1.0  0.1185
  H  H55  1  0.080100  0.810400  0.953400  1.0  0.1162
  H  H56  1  0.127800  0.033500  0.931500  1.0  0.1142
  H  H57  1  0.052400  0.076600  0.886100  1.0  0.1136
  H  H58  1  0.878600  0.064700  0.840900  1.0  0.1193
  H  H59  1  0.763200  0.948700  0.735900  1.0  0.1044
  H  H60  1  0.887000  0.831600  0.775900  1.0  0.1207
  H  H61  1  0.094500  0.674900  0.868300  1.0  0.0862
  H  H62  1  0.025200  0.602700  0.872700  1.0  0.128
  H  H63  1  0.101000  0.401200  0.872300  1.0  0.1285
  H  H64  1  0.168800  0.477900  0.870600  1.0  0.0853
  H  H65  1  0.889500  0.232100  0.866500  1.0  0.0826
  H  H66  1  0.956900  0.307300  0.857500  1.0  0.1251
  H  H67  1  0.878100  0.504700  0.885400  1.0  0.1398
  H  H68  1  0.813400  0.423500  0.893700  1.0  0.0768
  H  H69  1  0.017300  0.387500  0.876800  1.0  0.1102
  H  H70  1  0.962900  0.523100  0.872600  1.0  0.1062
  H  H71  1  0.450000  0.393000  0.848700  1.0  0.2733
  H  H72  1  0.504300  0.354200  0.909900  1.0  0.1185
  H  H73  1  0.580100  0.310400  0.953400  1.0  0.1162
  H  H74  1  0.627800  0.533500  0.931500  1.0  0.1142
  H  H75  1  0.552400  0.576600  0.886100  1.0  0.1136
  H  H76  1  0.378600  0.564700  0.840900  1.0  0.1193
  H  H77  1  0.263200  0.448700  0.735900  1.0  0.1044
  H  H78  1  0.387000  0.331600  0.775900  1.0  0.1207
  H  H79  1  0.594500  0.174900  0.868300  1.0  0.0862
  H  H80  1  0.525200  0.102700  0.872700  1.0  0.128
  H  H81  1  0.601000  0.901200  0.872300  1.0  0.1285
  H  H82  1  0.668800  0.977900  0.870600  1.0  0.0853
  H  H83  1  0.389500  0.732100  0.866500  1.0  0.0826
  H  H84  1  0.456900  0.807300  0.857500  1.0  0.1251
  H  H85  1  0.378100  0.004700  0.885400  1.0  0.1398
  H  H86  1  0.313400  0.923500  0.893700  1.0  0.0768
  H  H87  1  0.517300  0.887500  0.876800  1.0  0.1102
  H  H88  1  0.462900  0.023100  0.872600  1.0  0.1062
  H  H89  1  0.950000  0.107000  0.348700  1.0  0.2731
  H  H90  1  0.004300  0.145800  0.409900  1.0  0.1193
  H  H91  1  0.080100  0.189600  0.453400  1.0  0.1165
  H  H92  1  0.127800  0.966500  0.431500  1.0  0.1153
  H  H93  1  0.052400  0.923400  0.386100  1.0  0.1157
  H  H94  1  0.878600  0.935300  0.340900  1.0  0.1196
  H  H95  1  0.763200  0.051300  0.235900  1.0  0.1043
  H  H96  1  0.887000  0.168400  0.275900  1.0  0.1205
  H  H97  1  0.094500  0.325100  0.368300  1.0  0.0891
  H  H98  1  0.025200  0.397300  0.372700  1.0  0.1279
  H  H99  1  0.101000  0.598800  0.372300  1.0  0.1287
  H  H100  1  0.168800  0.522100  0.370600  1.0  0.0855
  H  H101  1  0.889500  0.767900  0.366500  1.0  0.0818
  H  H102  1  0.956900  0.692700  0.357500  1.0  0.1256
  H  H103  1  0.878100  0.495300  0.385400  1.0  0.1417
  H  H104  1  0.813400  0.576500  0.393700  1.0  0.0778
  H  H105  1  0.017300  0.612500  0.376800  1.0  0.1088
  H  H106  1  0.962900  0.476900  0.372600  1.0  0.1058
  H  H107  1  0.450000  0.607000  0.348700  1.0  0.2731
  H  H108  1  0.504300  0.645800  0.409900  1.0  0.1193
  H  H109  1  0.580100  0.689600  0.453400  1.0  0.1165
  H  H110  1  0.627800  0.466500  0.431500  1.0  0.1153
  H  H111  1  0.552400  0.423400  0.386100  1.0  0.1157
  H  H112  1  0.378600  0.435300  0.340900  1.0  0.1196
  H  H113  1  0.263200  0.551300  0.235900  1.0  0.1043
  H  H114  1  0.387000  0.668400  0.275900  1.0  0.1205
  H  H115  1  0.594500  0.825100  0.368300  1.0  0.0891
  H  H116  1  0.525200  0.897300  0.372700  1.0  0.1279
  H  H117  1  0.601000  0.098800  0.372300  1.0  0.1287
  H  H118  1  0.668800  0.022100  0.370600  1.0  0.0855
  H  H119  1  0.389500  0.267900  0.366500  1.0  0.0818
  H  H120  1  0.456900  0.192700  0.357500  1.0  0.1256
  H  H121  1  0.378100  0.995300  0.385400  1.0  0.1417
  H  H122  1  0.313400  0.076500  0.393700  1.0  0.0778
  H  H123  1  0.517300  0.112500  0.376800  1.0  0.1088
  H  H124  1  0.462900  0.976900  0.372600  1.0  0.1058
  H  H125  1  0.050000  0.107000  0.151300  1.0  0.2735
  H  H126  1  0.995700  0.145800  0.090100  1.0  0.119
  H  H127  1  0.919900  0.189600  0.046600  1.0  0.1171
  H  H128  1  0.872200  0.966500  0.068500  1.0  0.1152
  H  H129  1  0.947600  0.923400  0.113900  1.0  0.1156
  H  H130  1  0.121400  0.935300  0.159100  1.0  0.1203
  H  H131  1  0.236800  0.051300  0.264100  1.0  0.1046
  H  H132  1  0.113000  0.168400  0.224100  1.0  0.1208
  H  H133  1  0.905500  0.325100  0.131700  1.0  0.0885
  H  H134  1  0.974800  0.397300  0.127300  1.0  0.1284
  H  H135  1  0.899000  0.598800  0.127700  1.0  0.1287
  H  H136  1  0.831200  0.522100  0.129400  1.0  0.0854
  H  H137  1  0.110500  0.767900  0.133500  1.0  0.0818
  H  H138  1  0.043100  0.692700  0.142500  1.0  0.1254
  H  H139  1  0.121900  0.495300  0.114600  1.0  0.1415
  H  H140  1  0.186600  0.576500  0.106300  1.0  0.0775
  H  H141  1  0.982700  0.612500  0.123200  1.0  0.1093
  H  H142  1  0.037100  0.476900  0.127400  1.0  0.1061
  H  H143  1  0.550000  0.607000  0.151300  1.0  0.2735
  H  H144  1  0.495700  0.645800  0.090100  1.0  0.119
  H  H145  1  0.419900  0.689600  0.046600  1.0  0.1171
  H  H146  1  0.372200  0.466500  0.068500  1.0  0.1152
  H  H147  1  0.447600  0.423400  0.113900  1.0  0.1156
  H  H148  1  0.621400  0.435300  0.159100  1.0  0.1203
  H  H149  1  0.736800  0.551300  0.264100  1.0  0.1046
  H  H150  1  0.613000  0.668400  0.224100  1.0  0.1208
  H  H151  1  0.405500  0.825100  0.131700  1.0  0.0885
  H  H152  1  0.474800  0.897300  0.127300  1.0  0.1284
  H  H153  1  0.399000  0.098800  0.127700  1.0  0.1287
  H  H154  1  0.331200  0.022100  0.129400  1.0  0.0854
  H  H155  1  0.610500  0.267900  0.133500  1.0  0.0818
  H  H156  1  0.543100  0.192700  0.142500  1.0  0.1254
  H  H157  1  0.621900  0.995300  0.114600  1.0  0.1415
  H  H158  1  0.686600  0.076500  0.106300  1.0  0.0775
  H  H159  1  0.482700  0.112500  0.123200  1.0  0.1093
  H  H160  1  0.537100  0.976900  0.127400  1.0  0.1061
  C  C161  1  0.979390  0.969500  0.609200  1.0  -0.1271
  C  C162  1  0.970700  0.890700  0.587100  1.0  -0.1678
  C  C163  1  0.925200  0.864300  0.560400  1.0  -0.0705
  C  C164  1  0.887960  0.917600  0.554300  1.0  -0.1867
  C  C165  1  0.896960  0.996600  0.573700  1.0  -0.0327
  C  C166  1  0.942320  0.022500  0.601000  1.0  -0.0456
  C  C167  1  0.109180  0.947700  0.686900  1.0  0.2094
  C  C168  1  0.135580  0.017700  0.681500  1.0  -0.0628
  C  C169  1  0.183730  0.016700  0.710000  1.0  -0.1383
  C  C170  1  0.204800  0.948100  0.744700  1.0  0.0211
  C  C171  1  0.178770  0.877600  0.751100  1.0  -0.1672
  C  C172  1  0.130790  0.878500  0.721100  1.0  -0.1346
  C  C173  1  0.213700  0.089400  0.695600  1.0  0.7258
  C  C174  1  0.201080  0.803900  0.791300  1.0  0.7221
  C  C175  1  0.838880  0.886400  0.525200  1.0  0.6778
  C  C176  1  0.028240  0.999100  0.639600  1.0  0.5565
  C  C177  1  0.904080  0.619100  0.631500  1.0  0.1694
  C  C178  1  0.945800  0.575900  0.628400  1.0  -0.163
  C  C179  1  0.944700  0.493700  0.627100  1.0  0.0598
  C  C180  1  0.901200  0.456900  0.628300  1.0  -0.2309
  C  C181  1  0.860600  0.503400  0.630500  1.0  0.165
  C  C182  1  0.112600  0.287600  0.628200  1.0  0.1697
  C  C183  1  0.071900  0.332500  0.633700  1.0  -0.1884
  C  C184  1  0.073910  0.416100  0.626000  1.0  0.1661
  C  C185  1  0.118300  0.449300  0.617200  1.0  -0.2419
  C  C186  1  0.157020  0.399800  0.612200  1.0  0.1785
  C  C187  1  0.987500  0.442700  0.625300  1.0  -0.1091
  C  C188  1  0.032000  0.467900  0.626300  1.0  -0.1026
  C  C189  1  0.479390  0.469500  0.609200  1.0  -0.1271
  C  C190  1  0.470700  0.390700  0.587100  1.0  -0.1678
  C  C191  1  0.425200  0.364300  0.560400  1.0  -0.0705
  C  C192  1  0.387960  0.417600  0.554300  1.0  -0.1867
  C  C193  1  0.396960  0.496600  0.573700  1.0  -0.0327
  C  C194  1  0.442320  0.522500  0.601000  1.0  -0.0456
  C  C195  1  0.609180  0.447700  0.686900  1.0  0.2094
  C  C196  1  0.635580  0.517700  0.681500  1.0  -0.0628
  C  C197  1  0.683730  0.516700  0.710000  1.0  -0.1383
  C  C198  1  0.704800  0.448100  0.744700  1.0  0.0211
  C  C199  1  0.678770  0.377600  0.751100  1.0  -0.1672
  C  C200  1  0.630790  0.378500  0.721100  1.0  -0.1346
  C  C201  1  0.713700  0.589400  0.695600  1.0  0.7258
  C  C202  1  0.701080  0.303900  0.791300  1.0  0.7221
  C  C203  1  0.338880  0.386400  0.525200  1.0  0.6778
  C  C204  1  0.528240  0.499100  0.639600  1.0  0.5565
  C  C205  1  0.404080  0.119100  0.631500  1.0  0.1694
  C  C206  1  0.445800  0.075900  0.628400  1.0  -0.163
  C  C207  1  0.444700  0.993700  0.627100  1.0  0.0598
  C  C208  1  0.401200  0.956900  0.628300  1.0  -0.2309
  C  C209  1  0.360600  0.003400  0.630500  1.0  0.165
  C  C210  1  0.612600  0.787600  0.628200  1.0  0.1697
  C  C211  1  0.571900  0.832500  0.633700  1.0  -0.1884
  C  C212  1  0.573910  0.916100  0.626000  1.0  0.1661
  C  C213  1  0.618300  0.949300  0.617200  1.0  -0.2419
  C  C214  1  0.657020  0.899800  0.612200  1.0  0.1785
  C  C215  1  0.487500  0.942700  0.625300  1.0  -0.1091
  C  C216  1  0.532000  0.967900  0.626300  1.0  -0.1026
  C  C217  1  0.020610  0.969500  0.890800  1.0  -0.127
  C  C218  1  0.029300  0.890700  0.912900  1.0  -0.1676
  C  C219  1  0.074800  0.864300  0.939600  1.0  -0.0698
  C  C220  1  0.112040  0.917600  0.945700  1.0  -0.1862
  C  C221  1  0.103040  0.996600  0.926300  1.0  -0.0331
  C  C222  1  0.057680  0.022500  0.899000  1.0  -0.0457
  C  C223  1  0.890820  0.947700  0.813100  1.0  0.2103
  C  C224  1  0.864420  0.017700  0.818500  1.0  -0.0627
  C  C225  1  0.816270  0.016700  0.790000  1.0  -0.1378
  C  C226  1  0.795200  0.948100  0.755300  1.0  0.0194
  C  C227  1  0.821230  0.877600  0.748900  1.0  -0.1661
  C  C228  1  0.869210  0.878500  0.778900  1.0  -0.1358
  C  C229  1  0.786300  0.089400  0.804400  1.0  0.7264
  C  C230  1  0.798920  0.803900  0.708700  1.0  0.722
  C  C231  1  0.161120  0.886400  0.974800  1.0  0.6772
  C  C232  1  0.971760  0.999100  0.860400  1.0  0.5546
  C  C233  1  0.095920  0.619100  0.868500  1.0  0.1692
  C  C234  1  0.054200  0.575900  0.871600  1.0  -0.1631
  C  C235  1  0.055300  0.493700  0.872900  1.0  0.0602
  C  C236  1  0.098800  0.456900  0.871700  1.0  -0.2305
  C  C237  1  0.139400  0.503400  0.869500  1.0  0.1645
  C  C238  1  0.887400  0.287600  0.871800  1.0  0.1678
  C  C239  1  0.928100  0.332500  0.866300  1.0  -0.1878
  C  C240  1  0.926090  0.416100  0.874000  1.0  0.1659
  C  C241  1  0.881700  0.449300  0.882800  1.0  -0.2409
  C  C242  1  0.842980  0.399800  0.887800  1.0  0.1787
  C  C243  1  0.012500  0.442700  0.874700  1.0  -0.1079
  C  C244  1  0.968000  0.467900  0.873700  1.0  -0.1027
  C  C245  1  0.520610  0.469500  0.890800  1.0  -0.127
  C  C246  1  0.529300  0.390700  0.912900  1.0  -0.1676
  C  C247  1  0.574800  0.364300  0.939600  1.0  -0.0698
  C  C248  1  0.612040  0.417600  0.945700  1.0  -0.1862
  C  C249  1  0.603040  0.496600  0.926300  1.0  -0.0331
  C  C250  1  0.557680  0.522500  0.899000  1.0  -0.0457
  C  C251  1  0.390820  0.447700  0.813100  1.0  0.2103
  C  C252  1  0.364420  0.517700  0.818500  1.0  -0.0627
  C  C253  1  0.316270  0.516700  0.790000  1.0  -0.1378
  C  C254  1  0.295200  0.448100  0.755300  1.0  0.0194
  C  C255  1  0.321230  0.377600  0.748900  1.0  -0.1661
  C  C256  1  0.369210  0.378500  0.778900  1.0  -0.1358
  C  C257  1  0.286300  0.589400  0.804400  1.0  0.7264
  C  C258  1  0.298920  0.303900  0.708700  1.0  0.722
  C  C259  1  0.661120  0.386400  0.974800  1.0  0.6772
  C  C260  1  0.471760  0.499100  0.860400  1.0  0.5546
  C  C261  1  0.595920  0.119100  0.868500  1.0  0.1692
  C  C262  1  0.554200  0.075900  0.871600  1.0  -0.1631
  C  C263  1  0.555300  0.993700  0.872900  1.0  0.0602
  C  C264  1  0.598800  0.956900  0.871700  1.0  -0.2305
  C  C265  1  0.639400  0.003400  0.869500  1.0  0.1645
  C  C266  1  0.387400  0.787600  0.871800  1.0  0.1678
  C  C267  1  0.428100  0.832500  0.866300  1.0  -0.1878
  C  C268  1  0.426090  0.916100  0.874000  1.0  0.1659
  C  C269  1  0.381700  0.949300  0.882800  1.0  -0.2409
  C  C270  1  0.342980  0.899800  0.887800  1.0  0.1787
  C  C271  1  0.512500  0.942700  0.874700  1.0  -0.1079
  C  C272  1  0.468000  0.967900  0.873700  1.0  -0.1027
  C  C273  1  0.020610  0.030500  0.390800  1.0  -0.1274
  C  C274  1  0.029300  0.109300  0.412900  1.0  -0.1673
  C  C275  1  0.074800  0.135700  0.439600  1.0  -0.0706
  C  C276  1  0.112040  0.082400  0.445700  1.0  -0.186
  C  C277  1  0.103040  0.003400  0.426300  1.0  -0.035
  C  C278  1  0.057680  0.977500  0.399000  1.0  -0.0494
  C  C279  1  0.890820  0.052300  0.313100  1.0  0.2099
  C  C280  1  0.864420  0.982300  0.318500  1.0  -0.0623
  C  C281  1  0.816270  0.983300  0.290000  1.0  -0.1384
  C  C282  1  0.795200  0.051900  0.255300  1.0  0.0193
  C  C283  1  0.821230  0.122400  0.248900  1.0  -0.1667
  C  C284  1  0.869210  0.121500  0.278900  1.0  -0.1318
  C  C285  1  0.786300  0.910600  0.304400  1.0  0.7274
  C  C286  1  0.798920  0.196100  0.208700  1.0  0.7208
  C  C287  1  0.161120  0.113600  0.474800  1.0  0.6777
  C  C288  1  0.971760  0.000900  0.360400  1.0  0.5537
  C  C289  1  0.095920  0.380900  0.368500  1.0  0.1686
  C  C290  1  0.054200  0.424100  0.371600  1.0  -0.1627
  C  C291  1  0.055300  0.506300  0.372900  1.0  0.0607
  C  C292  1  0.098800  0.543100  0.371700  1.0  -0.2305
  C  C293  1  0.139400  0.496600  0.369500  1.0  0.165
  C  C294  1  0.887400  0.712400  0.371800  1.0  0.1687
  C  C295  1  0.928100  0.667500  0.366300  1.0  -0.1881
  C  C296  1  0.926090  0.583900  0.374000  1.0  0.1659
  C  C297  1  0.881700  0.550700  0.382800  1.0  -0.2381
  C  C298  1  0.842980  0.600200  0.387800  1.0  0.1791
  C  C299  1  0.012500  0.557300  0.374700  1.0  -0.1075
  C  C300  1  0.968000  0.532100  0.373700  1.0  -0.1021
  C  C301  1  0.520610  0.530500  0.390800  1.0  -0.1274
  C  C302  1  0.529300  0.609300  0.412900  1.0  -0.1673
  C  C303  1  0.574800  0.635700  0.439600  1.0  -0.0706
  C  C304  1  0.612040  0.582400  0.445700  1.0  -0.186
  C  C305  1  0.603040  0.503400  0.426300  1.0  -0.035
  C  C306  1  0.557680  0.477500  0.399000  1.0  -0.0494
  C  C307  1  0.390820  0.552300  0.313100  1.0  0.2099
  C  C308  1  0.364420  0.482300  0.318500  1.0  -0.0623
  C  C309  1  0.316270  0.483300  0.290000  1.0  -0.1384
  C  C310  1  0.295200  0.551900  0.255300  1.0  0.0193
  C  C311  1  0.321230  0.622400  0.248900  1.0  -0.1667
  C  C312  1  0.369210  0.621500  0.278900  1.0  -0.1318
  C  C313  1  0.286300  0.410600  0.304400  1.0  0.7274
  C  C314  1  0.298920  0.696100  0.208700  1.0  0.7208
  C  C315  1  0.661120  0.613600  0.474800  1.0  0.6777
  C  C316  1  0.471760  0.500900  0.360400  1.0  0.5537
  C  C317  1  0.595920  0.880900  0.368500  1.0  0.1686
  C  C318  1  0.554200  0.924100  0.371600  1.0  -0.1627
  C  C319  1  0.555300  0.006300  0.372900  1.0  0.0607
  C  C320  1  0.598800  0.043100  0.371700  1.0  -0.2305
  C  C321  1  0.639400  0.996600  0.369500  1.0  0.165
  C  C322  1  0.387400  0.212400  0.371800  1.0  0.1687
  C  C323  1  0.428100  0.167500  0.366300  1.0  -0.1881
  C  C324  1  0.426090  0.083900  0.374000  1.0  0.1659
  C  C325  1  0.381700  0.050700  0.382800  1.0  -0.2381
  C  C326  1  0.342980  0.100200  0.387800  1.0  0.1791
  C  C327  1  0.512500  0.057300  0.374700  1.0  -0.1075
  C  C328  1  0.468000  0.032100  0.373700  1.0  -0.1021
  C  C329  1  0.979390  0.030500  0.109200  1.0  -0.1271
  C  C330  1  0.970700  0.109300  0.087100  1.0  -0.1664
  C  C331  1  0.925200  0.135700  0.060400  1.0  -0.0716
  C  C332  1  0.887960  0.082400  0.054300  1.0  -0.1867
  C  C333  1  0.896960  0.003400  0.073700  1.0  -0.033
  C  C334  1  0.942320  0.977500  0.101000  1.0  -0.0495
  C  C335  1  0.109180  0.052300  0.186900  1.0  0.2093
  C  C336  1  0.135580  0.982300  0.181500  1.0  -0.0622
  C  C337  1  0.183730  0.983300  0.210000  1.0  -0.1379
  C  C338  1  0.204800  0.051900  0.244700  1.0  0.0211
  C  C339  1  0.178770  0.122400  0.251100  1.0  -0.166
  C  C340  1  0.130790  0.121500  0.221100  1.0  -0.1329
  C  C341  1  0.213700  0.910600  0.195600  1.0  0.7277
  C  C342  1  0.201080  0.196100  0.291300  1.0  0.7228
  C  C343  1  0.838880  0.113600  0.025200  1.0  0.6784
  C  C344  1  0.028240  0.000900  0.139600  1.0  0.5552
  C  C345  1  0.904080  0.380900  0.131500  1.0  0.169
  C  C346  1  0.945800  0.424100  0.128400  1.0  -0.1635
  C  C347  1  0.944700  0.506300  0.127100  1.0  0.0603
  C  C348  1  0.901200  0.543100  0.128300  1.0  -0.231
  C  C349  1  0.860600  0.496600  0.130500  1.0  0.1648
  C  C350  1  0.112600  0.712400  0.128200  1.0  0.1682
  C  C351  1  0.071900  0.667500  0.133700  1.0  -0.1889
  C  C352  1  0.073910  0.583900  0.126000  1.0  0.1661
  C  C353  1  0.118300  0.550700  0.117200  1.0  -0.238
  C  C354  1  0.157020  0.600200  0.112200  1.0  0.1789
  C  C355  1  0.987500  0.557300  0.125300  1.0  -0.1078
  C  C356  1  0.032000  0.532100  0.126300  1.0  -0.1013
  C  C357  1  0.479390  0.530500  0.109200  1.0  -0.1271
  C  C358  1  0.470700  0.609300  0.087100  1.0  -0.1664
  C  C359  1  0.425200  0.635700  0.060400  1.0  -0.0716
  C  C360  1  0.387960  0.582400  0.054300  1.0  -0.1867
  C  C361  1  0.396960  0.503400  0.073700  1.0  -0.033
  C  C362  1  0.442320  0.477500  0.101000  1.0  -0.0495
  C  C363  1  0.609180  0.552300  0.186900  1.0  0.2093
  C  C364  1  0.635580  0.482300  0.181500  1.0  -0.0622
  C  C365  1  0.683730  0.483300  0.210000  1.0  -0.1379
  C  C366  1  0.704800  0.551900  0.244700  1.0  0.0211
  C  C367  1  0.678770  0.622400  0.251100  1.0  -0.166
  C  C368  1  0.630790  0.621500  0.221100  1.0  -0.1329
  C  C369  1  0.713700  0.410600  0.195600  1.0  0.7277
  C  C370  1  0.701080  0.696100  0.291300  1.0  0.7228
  C  C371  1  0.338880  0.613600  0.025200  1.0  0.6784
  C  C372  1  0.528240  0.500900  0.139600  1.0  0.5552
  C  C373  1  0.404080  0.880900  0.131500  1.0  0.169
  C  C374  1  0.445800  0.924100  0.128400  1.0  -0.1635
  C  C375  1  0.444700  0.006300  0.127100  1.0  0.0603
  C  C376  1  0.401200  0.043100  0.128300  1.0  -0.231
  C  C377  1  0.360600  0.996600  0.130500  1.0  0.1648
  C  C378  1  0.612600  0.212400  0.128200  1.0  0.1682
  C  C379  1  0.571900  0.167500  0.133700  1.0  -0.1889
  C  C380  1  0.573910  0.083900  0.126000  1.0  0.1661
  C  C381  1  0.618300  0.050700  0.117200  1.0  -0.238
  C  C382  1  0.657020  0.100200  0.112200  1.0  0.1789
  C  C383  1  0.487500  0.057300  0.125300  1.0  -0.1078
  C  C384  1  0.532000  0.032100  0.126300  1.0  -0.1013
  N  N385  1  0.861870  0.583300  0.634200  1.0  -0.312
  N  N386  1  0.154950  0.320200  0.615500  1.0  -0.296
  N  N387  1  0.060460  0.941300  0.658000  1.0  -0.3892
  N  N388  1  0.361870  0.083300  0.634200  1.0  -0.312
  N  N389  1  0.654950  0.820200  0.615500  1.0  -0.296
  N  N390  1  0.560460  0.441300  0.658000  1.0  -0.3892
  N  N391  1  0.138130  0.583300  0.865800  1.0  -0.3114
  N  N392  1  0.845050  0.320200  0.884500  1.0  -0.3001
  N  N393  1  0.939540  0.941300  0.842000  1.0  -0.3903
  N  N394  1  0.638130  0.083300  0.865800  1.0  -0.3114
  N  N395  1  0.345050  0.820200  0.884500  1.0  -0.3001
  N  N396  1  0.439540  0.441300  0.842000  1.0  -0.3903
  N  N397  1  0.138130  0.416700  0.365800  1.0  -0.3112
  N  N398  1  0.845050  0.679800  0.384500  1.0  -0.2999
  N  N399  1  0.939540  0.058700  0.342000  1.0  -0.3879
  N  N400  1  0.638130  0.916700  0.365800  1.0  -0.3112
  N  N401  1  0.345050  0.179800  0.384500  1.0  -0.2999
  N  N402  1  0.439540  0.558700  0.342000  1.0  -0.3879
  N  N403  1  0.861870  0.416700  0.134200  1.0  -0.3117
  N  N404  1  0.154950  0.679800  0.115500  1.0  -0.2971
  N  N405  1  0.060460  0.058700  0.158000  1.0  -0.3863
  N  N406  1  0.361870  0.916700  0.134200  1.0  -0.3117
  N  N407  1  0.654950  0.179800  0.115500  1.0  -0.2971
  N  N408  1  0.560460  0.558700  0.158000  1.0  -0.3863
  O  O409  1  0.258580  0.078500  0.704800  1.0  -0.6001
  O  O410  1  0.194250  0.155040  0.676300  1.0  -0.6132
  O  O411  1  0.175810  0.740230  0.787200  1.0  -0.5923
  O  O412  1  0.242270  0.807930  0.825800  1.0  -0.6202
  O  O413  1  0.836450  0.811200  0.513400  1.0  -0.5934
  O  O414  1  0.804970  0.933800  0.515700  1.0  -0.5614
  O  O415  1  0.037720  0.070600  0.647200  1.0  -0.5248
  O  O416  1  0.267090  0.174490  0.527000  1.0  -0.6893
  O  O417  1  0.758580  0.578500  0.704800  1.0  -0.6001
  O  O418  1  0.694250  0.655040  0.676300  1.0  -0.6132
  O  O419  1  0.675810  0.240230  0.787200  1.0  -0.5923
  O  O420  1  0.742270  0.307930  0.825800  1.0  -0.6202
  O  O421  1  0.336450  0.311200  0.513400  1.0  -0.5934
  O  O422  1  0.304970  0.433800  0.515700  1.0  -0.5614
  O  O423  1  0.537720  0.570600  0.647200  1.0  -0.5248
  O  O424  1  0.767090  0.674490  0.527000  1.0  -0.6893
  O  O425  1  0.741420  0.078500  0.795200  1.0  -0.6003
  O  O426  1  0.805750  0.155040  0.823700  1.0  -0.6136
  O  O427  1  0.824190  0.740230  0.712800  1.0  -0.5926
  O  O428  1  0.757730  0.807930  0.674200  1.0  -0.6195
  O  O429  1  0.163550  0.811200  0.986600  1.0  -0.5933
  O  O430  1  0.195030  0.933800  0.984300  1.0  -0.5627
  O  O431  1  0.962280  0.070600  0.852800  1.0  -0.5224
  O  O432  1  0.732910  0.174490  0.973000  1.0  -0.6897
  O  O433  1  0.241420  0.578500  0.795200  1.0  -0.6003
  O  O434  1  0.305750  0.655040  0.823700  1.0  -0.6136
  O  O435  1  0.324190  0.240230  0.712800  1.0  -0.5926
  O  O436  1  0.257730  0.307930  0.674200  1.0  -0.6195
  O  O437  1  0.663550  0.311200  0.986600  1.0  -0.5933
  O  O438  1  0.695030  0.433800  0.984300  1.0  -0.5627
  O  O439  1  0.462280  0.570600  0.852800  1.0  -0.5224
  O  O440  1  0.232910  0.674490  0.973000  1.0  -0.6897
  O  O441  1  0.741420  0.921500  0.295200  1.0  -0.6
  O  O442  1  0.805750  0.844960  0.323700  1.0  -0.6151
  O  O443  1  0.824190  0.259770  0.212800  1.0  -0.5933
  O  O444  1  0.757730  0.192070  0.174200  1.0  -0.6192
  O  O445  1  0.163550  0.188800  0.486600  1.0  -0.5934
  O  O446  1  0.195030  0.066200  0.484300  1.0  -0.5616
  O  O447  1  0.962280  0.929400  0.352800  1.0  -0.5225
  O  O448  1  0.732910  0.825510  0.473000  1.0  -0.6892
  O  O449  1  0.241420  0.421500  0.295200  1.0  -0.6
  O  O450  1  0.305750  0.344960  0.323700  1.0  -0.6151
  O  O451  1  0.324190  0.759770  0.212800  1.0  -0.5933
  O  O452  1  0.257730  0.692070  0.174200  1.0  -0.6192
  O  O453  1  0.663550  0.688800  0.486600  1.0  -0.5934
  O  O454  1  0.695030  0.566200  0.484300  1.0  -0.5616
  O  O455  1  0.462280  0.429400  0.352800  1.0  -0.5225
  O  O456  1  0.232910  0.325510  0.473000  1.0  -0.6892
  O  O457  1  0.258580  0.921500  0.204800  1.0  -0.6002
  O  O458  1  0.194250  0.844960  0.176300  1.0  -0.615
  O  O459  1  0.175810  0.259770  0.287200  1.0  -0.593
  O  O460  1  0.242270  0.192070  0.325800  1.0  -0.6203
  O  O461  1  0.836450  0.188800  0.013400  1.0  -0.5935
  O  O462  1  0.804970  0.066200  0.015700  1.0  -0.5625
  O  O463  1  0.037720  0.929400  0.147200  1.0  -0.5233
  O  O464  1  0.267090  0.825510  0.027000  1.0  -0.689
  O  O465  1  0.758580  0.421500  0.204800  1.0  -0.6002
  O  O466  1  0.694250  0.344960  0.176300  1.0  -0.615
  O  O467  1  0.675810  0.759770  0.287200  1.0  -0.593
  O  O468  1  0.742270  0.692070  0.325800  1.0  -0.6203
  O  O469  1  0.336450  0.688800  0.013400  1.0  -0.5935
  O  O470  1  0.304970  0.566200  0.015700  1.0  -0.5625
  O  O471  1  0.537720  0.429400  0.147200  1.0  -0.5233
  O  O472  1  0.767090  0.325510  0.027000  1.0  -0.689
