# generated using pymatgen
data_Cu2H15C24NO8
_symmetry_space_group_name_H-M   'P 1'
_cell_length_a   11.42690000
_cell_length_b   11.42690000
_cell_length_c   18.87310000
_cell_angle_alpha   94.75840000
_cell_angle_beta   94.75840000
_cell_angle_gamma   96.72190000
_symmetry_Int_Tables_number   1
_chemical_formula_structural   Cu2H15C24NO8
_chemical_formula_sum   'Cu4 H30 C48 N2 O16'
_cell_volume   2428.24796864
_cell_formula_units_Z   2
loop_
 _symmetry_equiv_pos_site_id
 _symmetry_equiv_pos_as_xyz
  1  'x, y, z'
loop_
 _atom_site_type_symbol
 _atom_site_label
 _atom_site_symmetry_multiplicity
 _atom_site_fract_x
 _atom_site_fract_y
 _atom_site_fract_z
 _atom_site_occupancy
 _atom_site_charge
  Cu  Cu1  1  0.971810  0.095500  0.472050  1.0  0.889
  Cu  Cu2  1  0.904500  0.028190  0.027950  1.0  0.8892
  Cu  Cu3  1  0.028190  0.904500  0.527950  1.0  0.89
  Cu  Cu4  1  0.095500  0.971810  0.972050  1.0  0.89
  H  H5  1  0.770600  0.215000  0.641700  1.0  0.1128
  H  H6  1  0.305800  0.324200  0.530700  1.0  0.1082
  H  H7  1  0.484400  0.425600  0.585900  1.0  0.1211
  H  H8  1  0.529900  0.149900  0.701700  1.0  0.1072
  H  H9  1  0.625100  0.449300  0.697500  1.0  0.0966
  H  H10  1  0.699400  0.365800  0.651500  1.0  0.1084
  H  H11  1  0.354100  0.046900  0.645600  1.0  0.1094
  H  H12  1  0.785000  0.229400  0.858300  1.0  0.1152
  H  H13  1  0.675800  0.694200  0.969300  1.0  0.1078
  H  H14  1  0.574400  0.515600  0.914100  1.0  0.1211
  H  H15  1  0.850100  0.470100  0.798300  1.0  0.1071
  H  H16  1  0.550700  0.374900  0.802500  1.0  0.0953
  H  H17  1  0.634200  0.300600  0.848500  1.0  0.1102
  H  H18  1  0.953100  0.645900  0.854400  1.0  0.109
  H  H19  1  0.229400  0.785000  0.358300  1.0  0.1153
  H  H20  1  0.694200  0.675800  0.469300  1.0  0.108
  H  H21  1  0.515600  0.574400  0.414100  1.0  0.1205
  H  H22  1  0.470100  0.850100  0.298300  1.0  0.1071
  H  H23  1  0.374900  0.550700  0.302500  1.0  0.0949
  H  H24  1  0.300600  0.634200  0.348500  1.0  0.1108
  H  H25  1  0.645900  0.953100  0.354400  1.0  0.1095
  H  H26  1  0.215000  0.770600  0.141700  1.0  0.1132
  H  H27  1  0.324200  0.305800  0.030700  1.0  0.1077
  H  H28  1  0.425600  0.484400  0.085900  1.0  0.1214
  H  H29  1  0.149900  0.529900  0.201700  1.0  0.1072
  H  H30  1  0.449300  0.625100  0.197500  1.0  0.0941
  H  H31  1  0.365800  0.699400  0.151500  1.0  0.1092
  H  H32  1  0.046900  0.354100  0.145600  1.0  0.1089
  H  H33  1  0.983600  0.016400  0.750000  1.0  0.1251
  H  H34  1  0.016400  0.983600  0.250000  1.0  0.1255
  C  C35  1  0.800620  0.190680  0.685800  1.0  -0.1763
  C  C36  1  0.881490  0.109470  0.686000  1.0  -0.1186
  C  C37  1  0.197270  0.109590  0.549920  1.0  0.6786
  C  C38  1  0.523890  0.297790  0.649910  1.0  0.0851
  C  C39  1  0.311350  0.176070  0.583530  1.0  -0.1361
  C  C40  1  0.351040  0.288520  0.565520  1.0  -0.0466
  C  C41  1  0.457340  0.349040  0.598540  1.0  -0.1038
  C  C42  1  0.484610  0.185590  0.666960  1.0  -0.1438
  C  C43  1  0.638090  0.366050  0.685690  1.0  -0.1114
  C  C44  1  0.379580  0.124460  0.633860  1.0  -0.0449
  C  C45  1  0.921700  0.063660  0.616770  1.0  0.6839
  C  C46  1  0.809320  0.199380  0.814200  1.0  -0.177
  C  C47  1  0.890530  0.118510  0.814000  1.0  -0.1192
  C  C48  1  0.890410  0.802730  0.950080  1.0  0.679
  C  C49  1  0.702210  0.476110  0.850090  1.0  0.0829
  C  C50  1  0.823930  0.688650  0.916470  1.0  -0.1351
  C  C51  1  0.711480  0.648960  0.934480  1.0  -0.0432
  C  C52  1  0.650960  0.542660  0.901460  1.0  -0.1023
  C  C53  1  0.814410  0.515390  0.833040  1.0  -0.1464
  C  C54  1  0.633950  0.361910  0.814310  1.0  -0.1111
  C  C55  1  0.875540  0.620420  0.866140  1.0  -0.0447
  C  C56  1  0.936340  0.078300  0.883230  1.0  0.6827
  C  C57  1  0.199380  0.809320  0.314200  1.0  -0.1754
  C  C58  1  0.118510  0.890530  0.314000  1.0  -0.1168
  C  C59  1  0.802730  0.890410  0.450080  1.0  0.6789
  C  C60  1  0.476110  0.702210  0.350090  1.0  0.0829
  C  C61  1  0.688650  0.823930  0.416470  1.0  -0.1363
  C  C62  1  0.648960  0.711480  0.434480  1.0  -0.0454
  C  C63  1  0.542660  0.650960  0.401460  1.0  -0.1022
  C  C64  1  0.515390  0.814410  0.333040  1.0  -0.1442
  C  C65  1  0.361910  0.633950  0.314310  1.0  -0.1129
  C  C66  1  0.620420  0.875540  0.366140  1.0  -0.0449
  C  C67  1  0.078300  0.936340  0.383230  1.0  0.6833
  C  C68  1  0.190680  0.800620  0.185800  1.0  -0.1749
  C  C69  1  0.109470  0.881490  0.186000  1.0  -0.1174
  C  C70  1  0.109590  0.197270  0.049920  1.0  0.6794
  C  C71  1  0.297790  0.523890  0.149910  1.0  0.0819
  C  C72  1  0.176070  0.311350  0.083530  1.0  -0.1355
  C  C73  1  0.288520  0.351040  0.065520  1.0  -0.0441
  C  C74  1  0.349040  0.457340  0.098540  1.0  -0.1012
  C  C75  1  0.185590  0.484610  0.166960  1.0  -0.1442
  C  C76  1  0.366050  0.638090  0.185690  1.0  -0.1101
  C  C77  1  0.124460  0.379580  0.133860  1.0  -0.0468
  C  C78  1  0.063660  0.921700  0.116770  1.0  0.6829
  C  C79  1  0.762160  0.237840  0.750000  1.0  0.1423
  C  C80  1  0.927970  0.072030  0.750000  1.0  -0.0213
  C  C81  1  0.237840  0.762160  0.250000  1.0  0.1408
  C  C82  1  0.072030  0.927970  0.250000  1.0  -0.0228
  N  N83  1  0.681400  0.318600  0.750000  1.0  -0.1081
  N  N84  1  0.318600  0.681400  0.250000  1.0  -0.1085
  O  O85  1  0.912310  0.127650  0.565970  1.0  -0.5774
  O  O86  1  0.130850  0.166830  0.512600  1.0  -0.5727
  O  O87  1  0.176320  0.003160  0.561350  1.0  -0.5689
  O  O88  1  0.962850  0.966310  0.614690  1.0  -0.5693
  O  O89  1  0.872350  0.087690  0.934030  1.0  -0.5771
  O  O90  1  0.833170  0.869150  0.987400  1.0  -0.5731
  O  O91  1  0.996840  0.823680  0.938650  1.0  -0.5686
  O  O92  1  0.033690  0.037150  0.885310  1.0  -0.5704
  O  O93  1  0.087690  0.872350  0.434030  1.0  -0.5773
  O  O94  1  0.869150  0.833170  0.487400  1.0  -0.5731
  O  O95  1  0.823680  0.996840  0.438650  1.0  -0.5684
  O  O96  1  0.037150  0.033690  0.385310  1.0  -0.571
  O  O97  1  0.127650  0.912310  0.065970  1.0  -0.5778
  O  O98  1  0.166830  0.130850  0.012600  1.0  -0.5729
  O  O99  1  0.003160  0.176320  0.061350  1.0  -0.5677
  O  O100  1  0.966310  0.962850  0.114690  1.0  -0.5713
