# generated using pymatgen
data_Cu2H15C24NO8
_symmetry_space_group_name_H-M   'P 1'
_cell_length_a   10.63250000
_cell_length_b   10.72580000
_cell_length_c   18.35320000
_cell_angle_alpha   76.67100000
_cell_angle_beta   86.71700000
_cell_angle_gamma   74.27800000
_symmetry_Int_Tables_number   1
_chemical_formula_structural   Cu2H15C24NO8
_chemical_formula_sum   'Cu4 H30 C48 N2 O16'
_cell_volume   1960.42926155
_cell_formula_units_Z   2
loop_
 _symmetry_equiv_pos_site_id
 _symmetry_equiv_pos_as_xyz
  1  'x, y, z'
loop_
 _atom_site_type_symbol
 _atom_site_label
 _atom_site_symmetry_multiplicity
 _atom_site_fract_x
 _atom_site_fract_y
 _atom_site_fract_z
 _atom_site_occupancy
 _atom_site_charge
  Cu  Cu1  1  0.070690  0.897080  0.975480  1.0  0.8769
  Cu  Cu2  1  0.909790  0.084550  0.453890  1.0  0.91
  Cu  Cu3  1  0.929310  0.102920  0.024520  1.0  0.878
  Cu  Cu4  1  0.090210  0.915450  0.546110  1.0  0.9002
  H  H5  1  0.664900  0.281900  0.832700  1.0  0.1075
  H  H6  1  0.298700  0.106000  0.819700  1.0  0.1162
  H  H7  1  0.688000  0.304100  0.608900  1.0  0.1124
  H  H8  1  0.196400  0.358500  0.956900  1.0  0.1096
  H  H9  1  0.514300  0.448600  0.597300  1.0  0.1044
  H  H10  1  0.416600  0.557600  0.634700  1.0  0.1131
  H  H11  1  0.324500  0.489500  0.888500  1.0  0.1188
  H  H12  1  0.430700  0.236200  0.752200  1.0  0.1055
  H  H13  1  0.534700  0.473500  0.804100  1.0  0.0924
  H  H14  1  0.411500  0.555000  0.751200  1.0  0.1004
  H  H15  1  0.725400  0.521500  0.693100  1.0  0.0995
  H  H16  1  0.949700  0.021500  0.747600  1.0  0.1139
  H  H17  1  0.861700  0.660900  0.650600  1.0  0.1171
  H  H18  1  0.483600  0.708800  0.518100  1.0  0.1107
  H  H19  1  0.616500  0.851600  0.475000  1.0  0.1132
  H  H20  1  0.335100  0.718100  0.167300  1.0  0.1079
  H  H21  1  0.701300  0.894000  0.180300  1.0  0.1165
  H  H22  1  0.312000  0.695900  0.391100  1.0  0.1108
  H  H23  1  0.803600  0.641500  0.043100  1.0  0.1096
  H  H24  1  0.485700  0.551400  0.402700  1.0  0.1053
  H  H25  1  0.583400  0.442400  0.365300  1.0  0.113
  H  H26  1  0.675500  0.510500  0.111500  1.0  0.1175
  H  H27  1  0.569300  0.763800  0.247800  1.0  0.106
  H  H28  1  0.465300  0.526500  0.195900  1.0  0.0914
  H  H29  1  0.588500  0.445000  0.248800  1.0  0.1003
  H  H30  1  0.274600  0.478500  0.306900  1.0  0.0989
  H  H31  1  0.050300  0.978500  0.252400  1.0  0.1136
  H  H32  1  0.138300  0.339100  0.349400  1.0  0.1174
  H  H33  1  0.516400  0.291200  0.481900  1.0  0.1105
  H  H34  1  0.383500  0.148400  0.525000  1.0  0.113
  C  C35  1  0.874300  0.081600  0.879100  1.0  0.6913
  C  C36  1  0.649600  0.312400  0.718400  1.0  0.1536
  C  C37  1  0.151200  0.137000  0.937300  1.0  0.6925
  C  C38  1  0.704100  0.249000  0.790700  1.0  -0.154
  C  C39  1  0.811500  0.141800  0.801500  1.0  -0.0982
  C  C40  1  0.303500  0.184400  0.833900  1.0  -0.0497
  C  C41  1  0.825900  0.153900  0.671400  1.0  -0.0973
  C  C42  1  0.717200  0.262600  0.658800  1.0  -0.1699
  C  C43  1  0.389500  0.376700  0.814200  1.0  0.0727
  C  C44  1  0.233600  0.222200  0.893800  1.0  -0.1237
  C  C45  1  0.243000  0.333600  0.914500  1.0  -0.0425
  C  C46  1  0.508300  0.503700  0.634500  1.0  -0.0944
  C  C47  1  0.844500  0.854000  0.530000  1.0  0.6842
  C  C48  1  0.320400  0.411200  0.873900  1.0  -0.1581
  C  C49  1  0.382100  0.262100  0.793800  1.0  -0.1397
  C  C50  1  0.470000  0.465200  0.770100  1.0  -0.0981
  C  C51  1  0.595500  0.597800  0.608800  1.0  0.0637
  C  C52  1  0.704400  0.587200  0.647800  1.0  -0.1398
  C  C53  1  0.754800  0.767000  0.557100  1.0  -0.1371
  C  C54  1  0.874000  0.094700  0.740400  1.0  -0.053
  C  C55  1  0.785700  0.670300  0.622900  1.0  -0.0514
  C  C56  1  0.561400  0.698100  0.544600  1.0  -0.137
  C  C57  1  0.640500  0.782800  0.518800  1.0  -0.0587
  C  C58  1  0.894200  0.105300  0.604100  1.0  0.6902
  C  C59  1  0.125700  0.918400  0.120900  1.0  0.6914
  C  C60  1  0.350400  0.687600  0.281600  1.0  0.1521
  C  C61  1  0.848800  0.863000  0.062700  1.0  0.6921
  C  C62  1  0.295900  0.751000  0.209300  1.0  -0.1527
  C  C63  1  0.188500  0.858200  0.198500  1.0  -0.0996
  C  C64  1  0.696500  0.815600  0.166100  1.0  -0.0484
  C  C65  1  0.174100  0.846100  0.328600  1.0  -0.1002
  C  C66  1  0.282800  0.737400  0.341200  1.0  -0.169
  C  C67  1  0.610500  0.623300  0.185800  1.0  0.0742
  C  C68  1  0.766400  0.777800  0.106200  1.0  -0.1243
  C  C69  1  0.757000  0.666400  0.085500  1.0  -0.0405
  C  C70  1  0.491700  0.496300  0.365500  1.0  -0.092
  C  C71  1  0.155500  0.146000  0.470000  1.0  0.6852
  C  C72  1  0.679600  0.588800  0.126100  1.0  -0.1585
  C  C73  1  0.617900  0.737900  0.206200  1.0  -0.1411
  C  C74  1  0.530000  0.534800  0.229900  1.0  -0.0936
  C  C75  1  0.404500  0.402200  0.391200  1.0  0.0635
  C  C76  1  0.295600  0.412800  0.352200  1.0  -0.1391
  C  C77  1  0.245200  0.233000  0.442900  1.0  -0.137
  C  C78  1  0.126000  0.905300  0.259600  1.0  -0.0542
  C  C79  1  0.214300  0.329700  0.377100  1.0  -0.0634
  C  C80  1  0.438600  0.301900  0.455400  1.0  -0.137
  C  C81  1  0.359500  0.217200  0.481200  1.0  -0.0577
  C  C82  1  0.105800  0.894700  0.395900  1.0  0.6907
  N  N83  1  0.538600  0.416900  0.707000  1.0  -0.0981
  N  N84  1  0.461400  0.583100  0.293000  1.0  -0.098
  O  O85  1  0.175500  0.021200  0.930400  1.0  -0.57
  O  O86  1  0.059100  0.193400  0.975800  1.0  -0.5717
  O  O87  1  0.801100  0.958800  0.481700  1.0  -0.5569
  O  O88  1  0.957400  0.816600  0.559900  1.0  -0.5994
  O  O89  1  0.841700  0.156300  0.541200  1.0  -0.5642
  O  O90  1  0.837100  0.150800  0.927800  1.0  -0.5748
  O  O91  1  0.957200  0.974500  0.886900  1.0  -0.5562
  O  O92  1  0.997100  0.015200  0.619000  1.0  -0.5674
  O  O93  1  0.824500  0.978800  0.069600  1.0  -0.571
  O  O94  1  0.940900  0.806600  0.024200  1.0  -0.5714
  O  O95  1  0.198900  0.041200  0.518300  1.0  -0.5569
  O  O96  1  0.042600  0.183400  0.440100  1.0  -0.6004
  O  O97  1  0.158300  0.843700  0.458800  1.0  -0.5641
  O  O98  1  0.162900  0.849200  0.072200  1.0  -0.5751
  O  O99  1  0.042800  0.025500  0.113100  1.0  -0.5555
  O  O100  1  0.002900  0.984800  0.381000  1.0  -0.5671
