# generated using pymatgen
data_CoH16C24(NO2)2
_symmetry_space_group_name_H-M   'P 1'
_cell_length_a   12.70350000
_cell_length_b   22.65910000
_cell_length_c   22.65910000
_cell_angle_alpha   90.00000000
_cell_angle_beta   90.00000000
_cell_angle_gamma   90.00000000
_symmetry_Int_Tables_number   1
_chemical_formula_structural   CoH16C24(NO2)2
_chemical_formula_sum   'Co8 H128 C192 N16 O32'
_cell_volume   6522.41914453
_cell_formula_units_Z   8
loop_
 _symmetry_equiv_pos_site_id
 _symmetry_equiv_pos_as_xyz
  1  'x, y, z'
loop_
 _atom_site_type_symbol
 _atom_site_label
 _atom_site_symmetry_multiplicity
 _atom_site_fract_x
 _atom_site_fract_y
 _atom_site_fract_z
 _atom_site_occupancy
 _atom_site_charge
  Co  Co1  1  0.752880  0.743120  0.737550  1.0  0.829
  Co  Co2  1  0.752880  0.256880  0.262450  1.0  0.8289
  Co  Co3  1  0.247120  0.756880  0.237550  1.0  0.8283
  Co  Co4  1  0.247120  0.243120  0.762450  1.0  0.8284
  Co  Co5  1  0.752880  0.762450  0.243120  1.0  0.8297
  Co  Co6  1  0.752880  0.237550  0.756880  1.0  0.8293
  Co  Co7  1  0.247120  0.737550  0.743120  1.0  0.8287
  Co  Co8  1  0.247120  0.262450  0.256880  1.0  0.8291
  H  H9  1  0.475400  0.864900  0.774100  1.0  0.1058
  H  H10  1  0.551600  0.110700  0.722000  1.0  0.1227
  H  H11  1  0.938900  0.775800  0.374500  1.0  0.136
  H  H12  1  0.378800  0.952400  0.772900  1.0  0.1081
  H  H13  1  0.109800  0.695400  0.525200  1.0  0.0998
  H  H14  1  0.261700  0.685600  0.350800  1.0  0.0852
  H  H15  1  0.459500  0.198400  0.733200  1.0  0.0713
  H  H16  1  0.698000  0.941600  0.671900  1.0  0.1101
  H  H17  1  0.038800  0.790200  0.290900  1.0  0.0827
  H  H18  1  0.190000  0.113400  0.738400  1.0  0.0813
  H  H19  1  0.273900  0.023700  0.729000  1.0  0.1205
  H  H20  1  0.600300  0.028500  0.670500  1.0  0.118
  H  H21  1  0.747000  0.724600  0.527500  1.0  0.0939
  H  H22  1  0.836700  0.727500  0.438100  1.0  0.1138
  H  H23  1  0.020700  0.693800  0.613800  1.0  0.1022
  H  H24  1  0.166800  0.666667  0.435400  1.0  0.1298
  H  H25  1  0.475400  0.135100  0.225900  1.0  0.1058
  H  H26  1  0.551600  0.889300  0.278000  1.0  0.1227
  H  H27  1  0.938900  0.224200  0.625500  1.0  0.1354
  H  H28  1  0.378800  0.047600  0.227100  1.0  0.1077
  H  H29  1  0.109800  0.304600  0.474800  1.0  0.0995
  H  H30  1  0.261700  0.314400  0.649200  1.0  0.085
  H  H31  1  0.459500  0.801600  0.266800  1.0  0.0717
  H  H32  1  0.698000  0.058400  0.328100  1.0  0.1109
  H  H33  1  0.038800  0.209800  0.709100  1.0  0.082
  H  H34  1  0.190000  0.886600  0.261600  1.0  0.0816
  H  H35  1  0.273900  0.976300  0.271000  1.0  0.1205
  H  H36  1  0.600300  0.971500  0.329500  1.0  0.119
  H  H37  1  0.747000  0.275400  0.472500  1.0  0.0943
  H  H38  1  0.836700  0.272500  0.561900  1.0  0.1143
  H  H39  1  0.020700  0.306200  0.386200  1.0  0.1019
  H  H40  1  0.166800  0.333400  0.564600  1.0  0.1308
  H  H41  1  0.524600  0.635100  0.274100  1.0  0.106
  H  H42  1  0.448400  0.389300  0.222000  1.0  0.1221
  H  H43  1  0.061100  0.724200  0.874500  1.0  0.1354
  H  H44  1  0.621200  0.547600  0.272900  1.0  0.1085
  H  H45  1  0.890200  0.804600  0.025200  1.0  0.0998
  H  H46  1  0.738300  0.814400  0.850800  1.0  0.0842
  H  H47  1  0.540500  0.301600  0.233200  1.0  0.0717
  H  H48  1  0.302000  0.558400  0.171900  1.0  0.1102
  H  H49  1  0.961200  0.709800  0.790900  1.0  0.0822
  H  H50  1  0.810000  0.386600  0.238400  1.0  0.0814
  H  H51  1  0.726100  0.476300  0.229000  1.0  0.1211
  H  H52  1  0.399700  0.471500  0.170500  1.0  0.1182
  H  H53  1  0.253000  0.775400  0.027500  1.0  0.0942
  H  H54  1  0.163300  0.772500  0.938100  1.0  0.1139
  H  H55  1  0.979300  0.806200  0.113800  1.0  0.1017
  H  H56  1  0.833200  0.833400  0.935400  1.0  0.1306
  H  H57  1  0.524600  0.364900  0.725900  1.0  0.1061
  H  H58  1  0.448400  0.610700  0.778000  1.0  0.122
  H  H59  1  0.061100  0.275800  0.125500  1.0  0.1354
  H  H60  1  0.621200  0.452400  0.727100  1.0  0.1081
  H  H61  1  0.890200  0.195400  0.974800  1.0  0.0993
  H  H62  1  0.738300  0.185600  0.149200  1.0  0.0852
  H  H63  1  0.540500  0.698400  0.766800  1.0  0.0718
  H  H64  1  0.302000  0.441600  0.828100  1.0  0.1105
  H  H65  1  0.961200  0.290200  0.209100  1.0  0.0823
  H  H66  1  0.810000  0.613400  0.761600  1.0  0.0818
  H  H67  1  0.726100  0.523700  0.771000  1.0  0.1204
  H  H68  1  0.399700  0.528500  0.829500  1.0  0.1188
  H  H69  1  0.253000  0.224600  0.972500  1.0  0.0941
  H  H70  1  0.163300  0.227500  0.061900  1.0  0.115
  H  H71  1  0.979300  0.193800  0.886200  1.0  0.1014
  H  H72  1  0.833200  0.166600  0.064600  1.0  0.1304
  H  H73  1  0.475400  0.725900  0.364900  1.0  0.1059
  H  H74  1  0.551600  0.778000  0.610700  1.0  0.1227
  H  H75  1  0.938900  0.125500  0.275800  1.0  0.1353
  H  H76  1  0.378800  0.727100  0.452400  1.0  0.1079
  H  H77  1  0.109800  0.974800  0.195400  1.0  0.0995
  H  H78  1  0.261700  0.149200  0.185600  1.0  0.0837
  H  H79  1  0.459500  0.766800  0.698400  1.0  0.072
  H  H80  1  0.698000  0.828100  0.441600  1.0  0.1112
  H  H81  1  0.038800  0.209100  0.290200  1.0  0.0833
  H  H82  1  0.190000  0.761600  0.613400  1.0  0.0813
  H  H83  1  0.273900  0.771000  0.523700  1.0  0.121
  H  H84  1  0.600300  0.829500  0.528500  1.0  0.1184
  H  H85  1  0.747000  0.972500  0.224600  1.0  0.0948
  H  H86  1  0.836700  0.061900  0.227500  1.0  0.1134
  H  H87  1  0.020700  0.886200  0.193800  1.0  0.1013
  H  H88  1  0.166800  0.064600  0.166600  1.0  0.131
  H  H89  1  0.475400  0.274100  0.635100  1.0  0.1059
  H  H90  1  0.551600  0.222000  0.389300  1.0  0.1228
  H  H91  1  0.938900  0.874500  0.724200  1.0  0.135
  H  H92  1  0.378800  0.272900  0.547600  1.0  0.1081
  H  H93  1  0.109800  0.025200  0.804600  1.0  0.0992
  H  H94  1  0.261700  0.850800  0.814400  1.0  0.0834
  H  H95  1  0.459500  0.233200  0.301600  1.0  0.0719
  H  H96  1  0.698000  0.171900  0.558400  1.0  0.1111
  H  H97  1  0.038800  0.790900  0.709800  1.0  0.0833
  H  H98  1  0.190000  0.238400  0.386600  1.0  0.0816
  H  H99  1  0.273900  0.229000  0.476300  1.0  0.1211
  H  H100  1  0.600300  0.170500  0.471500  1.0  0.1186
  H  H101  1  0.747000  0.027500  0.775400  1.0  0.0948
  H  H102  1  0.836700  0.938100  0.772500  1.0  0.1131
  H  H103  1  0.020700  0.113800  0.806200  1.0  0.1017
  H  H104  1  0.166800  0.935400  0.833400  1.0  0.1308
  H  H105  1  0.524600  0.774100  0.864900  1.0  0.1059
  H  H106  1  0.448400  0.722000  0.110700  1.0  0.1223
  H  H107  1  0.061100  0.374500  0.775800  1.0  0.1351
  H  H108  1  0.621200  0.772900  0.952400  1.0  0.1083
  H  H109  1  0.890200  0.525200  0.695400  1.0  0.0993
  H  H110  1  0.738300  0.350800  0.685600  1.0  0.0834
  H  H111  1  0.540500  0.733200  0.198400  1.0  0.0722
  H  H112  1  0.302000  0.671900  0.941600  1.0  0.111
  H  H113  1  0.961200  0.290900  0.790200  1.0  0.0835
  H  H114  1  0.810000  0.738400  0.113400  1.0  0.0815
  H  H115  1  0.726100  0.729000  0.023700  1.0  0.1209
  H  H116  1  0.399700  0.670500  0.028500  1.0  0.1187
  H  H117  1  0.253000  0.527500  0.724600  1.0  0.0946
  H  H118  1  0.163300  0.438100  0.727500  1.0  0.1136
  H  H119  1  0.979300  0.613800  0.693800  1.0  0.1009
  H  H120  1  0.833200  0.435400  0.666667  1.0  0.1301
  H  H121  1  0.524600  0.225900  0.135100  1.0  0.1063
  H  H122  1  0.448400  0.278000  0.889300  1.0  0.1222
  H  H123  1  0.061100  0.625500  0.224200  1.0  0.1348
  H  H124  1  0.621200  0.227100  0.047600  1.0  0.1078
  H  H125  1  0.890200  0.474800  0.304600  1.0  0.099
  H  H126  1  0.738300  0.649200  0.314400  1.0  0.0833
  H  H127  1  0.540500  0.266800  0.801600  1.0  0.0723
  H  H128  1  0.302000  0.328100  0.058400  1.0  0.1113
  H  H129  1  0.961200  0.709100  0.209800  1.0  0.083
  H  H130  1  0.810000  0.261600  0.886600  1.0  0.0814
  H  H131  1  0.726100  0.271000  0.976300  1.0  0.1212
  H  H132  1  0.399700  0.329500  0.971500  1.0  0.1191
  H  H133  1  0.253000  0.472500  0.275400  1.0  0.0949
  H  H134  1  0.163300  0.561900  0.272500  1.0  0.113
  H  H135  1  0.979300  0.386200  0.306200  1.0  0.1014
  H  H136  1  0.833200  0.564600  0.333400  1.0  0.131
  C  C137  1  0.662900  0.840200  0.728100  1.0  0.6009
  C  C138  1  0.597600  0.895600  0.723800  1.0  -0.1197
  C  C139  1  0.875400  0.711100  0.580000  1.0  -0.1403
  C  C140  1  0.481800  0.999800  0.723200  1.0  0.0359
  C  C141  1  0.501400  0.898400  0.753600  1.0  -0.0451
  C  C142  1  0.820700  0.716100  0.637600  1.0  0.6443
  C  C143  1  0.983800  0.713800  0.472100  1.0  0.0399
  C  C144  1  0.042900  0.721200  0.415700  1.0  0.0829
  C  C145  1  0.423800  0.056800  0.725900  1.0  0.0814
  C  C146  1  0.477200  0.110000  0.726300  1.0  -0.1985
  C  C147  1  0.005500  0.757100  0.370900  1.0  -0.1988
  C  C148  1  0.444400  0.950400  0.752900  1.0  -0.1166
  C  C149  1  0.036100  0.702400  0.525600  1.0  -0.1145
  C  C150  1  0.195200  0.704100  0.355700  1.0  0.1784
  C  C151  1  0.421500  0.162300  0.733000  1.0  0.1672
  C  C152  1  0.633400  0.943800  0.692900  1.0  -0.032
  C  C153  1  0.065400  0.765200  0.321100  1.0  0.1751
  C  C154  1  0.264600  0.112700  0.736200  1.0  0.1741
  C  C155  1  0.314100  0.059000  0.730200  1.0  -0.2072
  C  C156  1  0.575500  0.995500  0.692300  1.0  -0.1261
  C  C157  1  0.821300  0.719700  0.527000  1.0  -0.0346
  C  C158  1  0.874500  0.721300  0.473800  1.0  -0.1659
  C  C159  1  0.983300  0.701300  0.578200  1.0  -0.0407
  C  C160  1  0.139700  0.693100  0.406600  1.0  -0.2123
  C  C161  1  0.662900  0.159800  0.271900  1.0  0.6005
  C  C162  1  0.597600  0.104400  0.276200  1.0  -0.1203
  C  C163  1  0.875400  0.288900  0.420000  1.0  -0.1404
  C  C164  1  0.481800  0.000200  0.276800  1.0  0.0357
  C  C165  1  0.501400  0.101600  0.246400  1.0  -0.0449
  C  C166  1  0.820700  0.283900  0.362400  1.0  0.6451
  C  C167  1  0.983800  0.286200  0.527900  1.0  0.04
  C  C168  1  0.042900  0.278800  0.584300  1.0  0.0836
  C  C169  1  0.423800  0.943200  0.274100  1.0  0.0808
  C  C170  1  0.477200  0.890000  0.273700  1.0  -0.1987
  C  C171  1  0.005500  0.242900  0.629100  1.0  -0.1988
  C  C172  1  0.444400  0.049600  0.247100  1.0  -0.1164
  C  C173  1  0.036100  0.297600  0.474400  1.0  -0.1152
  C  C174  1  0.195200  0.295900  0.644300  1.0  0.1788
  C  C175  1  0.421500  0.837700  0.267000  1.0  0.1668
  C  C176  1  0.633400  0.056200  0.307100  1.0  -0.0319
  C  C177  1  0.065400  0.234800  0.678900  1.0  0.1744
  C  C178  1  0.264600  0.887300  0.263800  1.0  0.1743
  C  C179  1  0.314100  0.941000  0.269800  1.0  -0.2092
  C  C180  1  0.575500  0.004500  0.307700  1.0  -0.1254
  C  C181  1  0.821300  0.280300  0.473000  1.0  -0.0354
  C  C182  1  0.874500  0.278700  0.526200  1.0  -0.165
  C  C183  1  0.983300  0.298700  0.421800  1.0  -0.0408
  C  C184  1  0.139700  0.306900  0.593400  1.0  -0.2121
  C  C185  1  0.337100  0.659800  0.228100  1.0  0.6014
  C  C186  1  0.402400  0.604400  0.223800  1.0  -0.1203
  C  C187  1  0.124600  0.788900  0.080000  1.0  -0.1406
  C  C188  1  0.518200  0.500200  0.223200  1.0  0.0351
  C  C189  1  0.498600  0.601600  0.253600  1.0  -0.0439
  C  C190  1  0.179300  0.783900  0.137600  1.0  0.6434
  C  C191  1  0.016200  0.786200  0.972100  1.0  0.0401
  C  C192  1  0.957100  0.778800  0.915700  1.0  0.0826
  C  C193  1  0.576200  0.443200  0.225900  1.0  0.0797
  C  C194  1  0.522800  0.390000  0.226300  1.0  -0.1995
  C  C195  1  0.994500  0.742900  0.870900  1.0  -0.1993
  C  C196  1  0.555600  0.549600  0.252900  1.0  -0.1181
  C  C197  1  0.963900  0.797600  0.025600  1.0  -0.1145
  C  C198  1  0.804800  0.795900  0.855700  1.0  0.1792
  C  C199  1  0.578500  0.337700  0.233000  1.0  0.1675
  C  C200  1  0.366600  0.556200  0.192900  1.0  -0.0293
  C  C201  1  0.934600  0.734800  0.821100  1.0  0.1746
  C  C202  1  0.735400  0.387300  0.236200  1.0  0.1728
  C  C203  1  0.685900  0.441000  0.230200  1.0  -0.2079
  C  C204  1  0.424500  0.504500  0.192300  1.0  -0.1262
  C  C205  1  0.178700  0.780300  0.027000  1.0  -0.0361
  C  C206  1  0.125500  0.778700  0.973800  1.0  -0.1666
  C  C207  1  0.016700  0.798700  0.078200  1.0  -0.0413
  C  C208  1  0.860300  0.806900  0.906600  1.0  -0.2131
  C  C209  1  0.337100  0.340200  0.771900  1.0  0.602
  C  C210  1  0.402400  0.395600  0.776200  1.0  -0.1197
  C  C211  1  0.124600  0.211100  0.920000  1.0  -0.1399
  C  C212  1  0.518200  0.499800  0.776800  1.0  0.0351
  C  C213  1  0.498600  0.398400  0.746400  1.0  -0.0452
  C  C214  1  0.179300  0.216100  0.862400  1.0  0.6441
  C  C215  1  0.016200  0.213800  0.027900  1.0  0.04
  C  C216  1  0.957100  0.221200  0.084300  1.0  0.0837
  C  C217  1  0.576200  0.556800  0.774100  1.0  0.0799
  C  C218  1  0.522800  0.610000  0.773700  1.0  -0.1994
  C  C219  1  0.994500  0.257100  0.129100  1.0  -0.1984
  C  C220  1  0.555600  0.450400  0.747100  1.0  -0.1179
  C  C221  1  0.963900  0.202400  0.974400  1.0  -0.114
  C  C222  1  0.804800  0.204100  0.144300  1.0  0.1801
  C  C223  1  0.578500  0.662300  0.767000  1.0  0.1678
  C  C224  1  0.366600  0.443800  0.807100  1.0  -0.0314
  C  C225  1  0.934600  0.265200  0.178900  1.0  0.1755
  C  C226  1  0.735400  0.612700  0.763800  1.0  0.1738
  C  C227  1  0.685900  0.559000  0.769800  1.0  -0.2074
  C  C228  1  0.424500  0.495500  0.807700  1.0  -0.1256
  C  C229  1  0.178700  0.219700  0.973000  1.0  -0.0363
  C  C230  1  0.125500  0.221300  0.026200  1.0  -0.1663
  C  C231  1  0.016700  0.201300  0.921800  1.0  -0.0412
  C  C232  1  0.860300  0.193100  0.093400  1.0  -0.2123
  C  C233  1  0.662900  0.771900  0.340200  1.0  0.6008
  C  C234  1  0.597600  0.776200  0.395600  1.0  -0.1217
  C  C235  1  0.875400  0.920000  0.211100  1.0  -0.139
  C  C236  1  0.481800  0.776800  0.499800  1.0  0.0359
  C  C237  1  0.501400  0.746400  0.398400  1.0  -0.044
  C  C238  1  0.820700  0.862400  0.216100  1.0  0.6445
  C  C239  1  0.983800  0.027900  0.213800  1.0  0.0407
  C  C240  1  0.042900  0.084300  0.221200  1.0  0.0831
  C  C241  1  0.423800  0.774100  0.556800  1.0  0.0811
  C  C242  1  0.477200  0.773700  0.610000  1.0  -0.1986
  C  C243  1  0.005500  0.129100  0.257100  1.0  -0.1967
  C  C244  1  0.444400  0.747100  0.450400  1.0  -0.117
  C  C245  1  0.036100  0.974400  0.202400  1.0  -0.1162
  C  C246  1  0.195200  0.144300  0.204100  1.0  0.1768
  C  C247  1  0.421500  0.767000  0.662300  1.0  0.169
  C  C248  1  0.633400  0.807100  0.443800  1.0  -0.0329
  C  C249  1  0.065400  0.178900  0.265200  1.0  0.1756
  C  C250  1  0.264600  0.763800  0.612700  1.0  0.1759
  C  C251  1  0.314100  0.769800  0.559000  1.0  -0.209
  C  C252  1  0.575500  0.807700  0.495500  1.0  -0.1283
  C  C253  1  0.821300  0.973000  0.219700  1.0  -0.0352
  C  C254  1  0.874500  0.026200  0.221300  1.0  -0.1666
  C  C255  1  0.983300  0.921800  0.201300  1.0  -0.0416
  C  C256  1  0.139700  0.093400  0.193100  1.0  -0.2121
  C  C257  1  0.662900  0.228100  0.659800  1.0  0.6017
  C  C258  1  0.597600  0.223800  0.604400  1.0  -0.12
  C  C259  1  0.875400  0.080000  0.788900  1.0  -0.1389
  C  C260  1  0.481800  0.223200  0.500200  1.0  0.0359
  C  C261  1  0.501400  0.253600  0.601600  1.0  -0.0442
  C  C262  1  0.820700  0.137600  0.783900  1.0  0.6438
  C  C263  1  0.983800  0.972100  0.786200  1.0  0.0402
  C  C264  1  0.042900  0.915700  0.778800  1.0  0.0835
  C  C265  1  0.423800  0.225900  0.443200  1.0  0.0813
  C  C266  1  0.477200  0.226300  0.390000  1.0  -0.1991
  C  C267  1  0.005500  0.870900  0.742900  1.0  -0.1976
  C  C268  1  0.444400  0.252900  0.549600  1.0  -0.1178
  C  C269  1  0.036100  0.025600  0.797600  1.0  -0.1162
  C  C270  1  0.195200  0.855700  0.795900  1.0  0.177
  C  C271  1  0.421500  0.233000  0.337700  1.0  0.1685
  C  C272  1  0.633400  0.192900  0.556200  1.0  -0.0351
  C  C273  1  0.065400  0.821100  0.734800  1.0  0.1757
  C  C274  1  0.264600  0.236200  0.387300  1.0  0.1758
  C  C275  1  0.314100  0.230200  0.441000  1.0  -0.209
  C  C276  1  0.575500  0.192300  0.504500  1.0  -0.1289
  C  C277  1  0.821300  0.027000  0.780300  1.0  -0.0341
  C  C278  1  0.874500  0.973800  0.778700  1.0  -0.1656
  C  C279  1  0.983300  0.078200  0.798700  1.0  -0.0413
  C  C280  1  0.139700  0.906600  0.806900  1.0  -0.2107
  C  C281  1  0.337100  0.728100  0.840200  1.0  0.6017
  C  C282  1  0.402400  0.723800  0.895600  1.0  -0.1216
  C  C283  1  0.124600  0.580000  0.711100  1.0  -0.1389
  C  C284  1  0.518200  0.723200  0.999800  1.0  0.0352
  C  C285  1  0.498600  0.753600  0.898400  1.0  -0.0437
  C  C286  1  0.179300  0.637600  0.716100  1.0  0.6431
  C  C287  1  0.016200  0.472100  0.713800  1.0  0.0402
  C  C288  1  0.957100  0.415700  0.721200  1.0  0.0838
  C  C289  1  0.576200  0.725900  0.056800  1.0  0.08
  C  C290  1  0.522800  0.726300  0.110000  1.0  -0.1998
  C  C291  1  0.994500  0.370900  0.757100  1.0  -0.1971
  C  C292  1  0.555600  0.752900  0.950400  1.0  -0.1182
  C  C293  1  0.963900  0.525600  0.702400  1.0  -0.1157
  C  C294  1  0.804800  0.355700  0.704100  1.0  0.1778
  C  C295  1  0.578500  0.733000  0.162300  1.0  0.1696
  C  C296  1  0.366600  0.692900  0.943800  1.0  -0.0319
  C  C297  1  0.934600  0.321100  0.765200  1.0  0.1758
  C  C298  1  0.735400  0.736200  0.112700  1.0  0.1749
  C  C299  1  0.685900  0.730200  0.059000  1.0  -0.2082
  C  C300  1  0.424500  0.692300  0.995500  1.0  -0.1289
  C  C301  1  0.178700  0.527000  0.719700  1.0  -0.0364
  C  C302  1  0.125500  0.473800  0.721300  1.0  -0.1666
  C  C303  1  0.016700  0.578200  0.701300  1.0  -0.0419
  C  C304  1  0.860300  0.406600  0.693100  1.0  -0.2143
  C  C305  1  0.337100  0.271900  0.159800  1.0  0.6024
  C  C306  1  0.402400  0.276200  0.104400  1.0  -0.1201
  C  C307  1  0.124600  0.420000  0.288900  1.0  -0.1384
  C  C308  1  0.518200  0.276800  0.000200  1.0  0.0351
  C  C309  1  0.498600  0.246400  0.101600  1.0  -0.0439
  C  C310  1  0.179300  0.362400  0.283900  1.0  0.6437
  C  C311  1  0.016200  0.527900  0.286200  1.0  0.0407
  C  C312  1  0.957100  0.584300  0.278800  1.0  0.0832
  C  C313  1  0.576200  0.274100  0.943200  1.0  0.0794
  C  C314  1  0.522800  0.273700  0.890000  1.0  -0.1996
  C  C315  1  0.994500  0.629100  0.242900  1.0  -0.1973
  C  C316  1  0.555600  0.247100  0.049600  1.0  -0.1188
  C  C317  1  0.963900  0.474400  0.297600  1.0  -0.1158
  C  C318  1  0.804800  0.644300  0.295900  1.0  0.1783
  C  C319  1  0.578500  0.267000  0.837700  1.0  0.1694
  C  C320  1  0.366600  0.307100  0.056200  1.0  -0.0323
  C  C321  1  0.934600  0.678900  0.234800  1.0  0.176
  C  C322  1  0.735400  0.263800  0.887300  1.0  0.175
  C  C323  1  0.685900  0.269800  0.941000  1.0  -0.2088
  C  C324  1  0.424500  0.307700  0.004500  1.0  -0.1278
  C  C325  1  0.178700  0.473000  0.280300  1.0  -0.0362
  C  C326  1  0.125500  0.526200  0.278700  1.0  -0.1667
  C  C327  1  0.016700  0.421800  0.298700  1.0  -0.0419
  C  C328  1  0.860300  0.593400  0.306900  1.0  -0.2118
  N  N329  1  0.316800  0.164280  0.739150  1.0  -0.3343
  N  N330  1  0.160400  0.739560  0.312930  1.0  -0.341
  N  N331  1  0.316800  0.835720  0.260850  1.0  -0.3338
  N  N332  1  0.160400  0.260440  0.687070  1.0  -0.3412
  N  N333  1  0.683200  0.335720  0.239150  1.0  -0.3328
  N  N334  1  0.839600  0.760440  0.812930  1.0  -0.3419
  N  N335  1  0.683200  0.664280  0.760850  1.0  -0.3332
  N  N336  1  0.839600  0.239560  0.187070  1.0  -0.3433
  N  N337  1  0.316800  0.760850  0.664280  1.0  -0.3362
  N  N338  1  0.160400  0.187070  0.239560  1.0  -0.34
  N  N339  1  0.316800  0.239150  0.335720  1.0  -0.3384
  N  N340  1  0.160400  0.812930  0.760440  1.0  -0.3405
  N  N341  1  0.683200  0.739150  0.164280  1.0  -0.3348
  N  N342  1  0.839600  0.312930  0.739560  1.0  -0.3414
  N  N343  1  0.683200  0.260850  0.835720  1.0  -0.337
  N  N344  1  0.839600  0.687070  0.260440  1.0  -0.3412
  O  O345  1  0.874000  0.716790  0.684470  1.0  -0.5544
  O  O346  1  0.622900  0.794750  0.752630  1.0  -0.5422
  O  O347  1  0.754600  0.839220  0.708020  1.0  -0.5755
  O  O348  1  0.721100  0.722630  0.639700  1.0  -0.5856
  O  O349  1  0.874000  0.283210  0.315530  1.0  -0.5535
  O  O350  1  0.622900  0.205250  0.247370  1.0  -0.5424
  O  O351  1  0.754600  0.160780  0.291980  1.0  -0.5759
  O  O352  1  0.721100  0.277370  0.360300  1.0  -0.5865
  O  O353  1  0.126000  0.783210  0.184470  1.0  -0.5533
  O  O354  1  0.377100  0.705250  0.252630  1.0  -0.5415
  O  O355  1  0.245400  0.660780  0.208020  1.0  -0.5757
  O  O356  1  0.278900  0.777370  0.139700  1.0  -0.586
  O  O357  1  0.126000  0.216790  0.815530  1.0  -0.5523
  O  O358  1  0.377100  0.294750  0.747370  1.0  -0.5431
  O  O359  1  0.245400  0.339220  0.791980  1.0  -0.5768
  O  O360  1  0.278900  0.222630  0.860300  1.0  -0.5866
  O  O361  1  0.874000  0.815530  0.216790  1.0  -0.554
  O  O362  1  0.622900  0.747370  0.294750  1.0  -0.5439
  O  O363  1  0.754600  0.791980  0.339220  1.0  -0.576
  O  O364  1  0.721100  0.860300  0.222630  1.0  -0.5866
  O  O365  1  0.874000  0.184470  0.783210  1.0  -0.5534
  O  O366  1  0.622900  0.252630  0.705250  1.0  -0.5431
  O  O367  1  0.754600  0.208020  0.660780  1.0  -0.5759
  O  O368  1  0.721100  0.139700  0.777370  1.0  -0.5865
  O  O369  1  0.126000  0.684470  0.716790  1.0  -0.5525
  O  O370  1  0.377100  0.752630  0.794750  1.0  -0.5434
  O  O371  1  0.245400  0.708020  0.839220  1.0  -0.5757
  O  O372  1  0.278900  0.639700  0.722630  1.0  -0.5871
  O  O373  1  0.126000  0.315530  0.283210  1.0  -0.553
  O  O374  1  0.377100  0.247370  0.205250  1.0  -0.5434
  O  O375  1  0.245400  0.291980  0.160780  1.0  -0.5763
  O  O376  1  0.278900  0.360300  0.277370  1.0  -0.5872
