# generated using pymatgen
data_CoH16C24(NO2)2
_symmetry_space_group_name_H-M   'P 1'
_cell_length_a   10.70220000
_cell_length_b   10.70220000
_cell_length_c   22.87420000
_cell_angle_alpha   90.00000000
_cell_angle_beta   90.00000000
_cell_angle_gamma   120.00000000
_symmetry_Int_Tables_number   1
_chemical_formula_structural   CoH16C24(NO2)2
_chemical_formula_sum   'Co3 H48 C72 N6 O12'
_cell_volume   2268.93822161
_cell_formula_units_Z   3
loop_
 _symmetry_equiv_pos_site_id
 _symmetry_equiv_pos_as_xyz
  1  'x, y, z'
loop_
 _atom_site_type_symbol
 _atom_site_label
 _atom_site_symmetry_multiplicity
 _atom_site_fract_x
 _atom_site_fract_y
 _atom_site_fract_z
 _atom_site_occupancy
 _atom_site_charge
  Co  Co1  1  0.644700  0.289700  0.677500  1.0  0.8758
  Co  Co2  1  0.645000  0.355300  0.010830  1.0  0.8793
  Co  Co3  1  0.710300  0.355000  0.344170  1.0  0.879
  H  H4  1  0.650700  0.420600  0.798700  1.0  0.0582
  H  H5  1  0.784900  0.596800  0.858800  1.0  0.1275
  H  H6  1  0.121100  0.679000  0.760000  1.0  0.123
  H  H7  1  0.964800  0.525800  0.691100  1.0  0.0857
  H  H8  1  0.908700  0.829800  0.882200  1.0  0.125
  H  H9  1  0.053700  0.004300  0.951900  1.0  0.1032
  H  H10  1  0.400000  0.011100  0.888900  1.0  0.0837
  H  H11  1  0.263200  0.811900  0.832100  1.0  0.1211
  H  H12  1  0.536200  0.508600  0.659000  1.0  0.0893
  H  H13  1  0.572200  0.693500  0.599700  1.0  0.1207
  H  H14  1  0.807400  0.598100  0.496300  1.0  0.1102
  H  H15  1  0.784000  0.427400  0.560500  1.0  0.0758
  H  H16  1  0.559900  0.812400  0.527700  1.0  0.1173
  H  H17  1  0.596900  0.995000  0.463000  1.0  0.0901
  H  H18  1  0.952200  0.006500  0.401900  1.0  0.1102
  H  H19  1  0.905400  0.812300  0.460500  1.0  0.1138
  H  H20  1  0.769900  0.349300  0.132030  1.0  0.059
  H  H21  1  0.811900  0.215100  0.192130  1.0  0.1274
  H  H22  1  0.557900  0.878900  0.093330  1.0  0.1255
  H  H23  1  0.561000  0.035200  0.024430  1.0  0.0861
  H  H24  1  0.921100  0.091300  0.215530  1.0  0.1265
  H  H25  1  0.950600  0.946300  0.285230  1.0  0.1033
  H  H26  1  0.611100  0.600000  0.222230  1.0  0.0823
  H  H27  1  0.548700  0.736800  0.165430  1.0  0.1214
  H  H28  1  0.972400  0.463800  0.992330  1.0  0.0889
  H  H29  1  0.121300  0.427800  0.933030  1.0  0.1211
  H  H30  1  0.790700  0.192600  0.829630  1.0  0.1087
  H  H31  1  0.643400  0.216000  0.893830  1.0  0.0759
  H  H32  1  0.252500  0.440100  0.861030  1.0  0.1183
  H  H33  1  0.398100  0.403100  0.796330  1.0  0.0907
  H  H34  1  0.054300  0.047800  0.735230  1.0  0.1097
  H  H35  1  0.906900  0.094600  0.793830  1.0  0.114
  H  H36  1  0.579400  0.230100  0.465370  1.0  0.0588
  H  H37  1  0.403200  0.188100  0.525470  1.0  0.1286
  H  H38  1  0.321000  0.442100  0.426670  1.0  0.12
  H  H39  1  0.474200  0.439000  0.357770  1.0  0.0855
  H  H40  1  0.170200  0.078900  0.548870  1.0  0.126
  H  H41  1  0.995700  0.049400  0.618570  1.0  0.1043
  H  H42  1  0.988900  0.388900  0.555570  1.0  0.0823
  H  H43  1  0.188100  0.451300  0.498770  1.0  0.1223
  H  H44  1  0.491400  0.027600  0.325670  1.0  0.0905
  H  H45  1  0.306500  0.878700  0.266370  1.0  0.1236
  H  H46  1  0.401900  0.209300  0.162970  1.0  0.1097
  H  H47  1  0.572600  0.356600  0.227170  1.0  0.0766
  H  H48  1  0.187600  0.747500  0.194370  1.0  0.1189
  H  H49  1  0.005000  0.601900  0.129670  1.0  0.0905
  H  H50  1  0.993500  0.945700  0.068570  1.0  0.1094
  H  H51  1  0.187700  0.093100  0.127170  1.0  0.1147
  C  C52  1  0.748800  0.481800  0.788000  1.0  0.1732
  C  C53  1  0.827200  0.582200  0.824800  1.0  -0.2163
  C  C54  1  0.973600  0.669500  0.814100  1.0  0.1422
  C  C55  1  0.020000  0.634000  0.766800  1.0  -0.198
  C  C56  1  0.927000  0.535000  0.727400  1.0  0.1839
  C  C57  1  0.066600  0.790600  0.853400  1.0  0.0462
  C  C58  1  0.007000  0.857000  0.886400  1.0  -0.1419
  C  C59  1  0.096000  0.966000  0.926300  1.0  -0.0269
  C  C60  1  0.246700  0.019700  0.929400  1.0  -0.1115
  C  C61  1  0.298000  0.966000  0.891700  1.0  -0.0272
  C  C62  1  0.217500  0.850800  0.855500  1.0  -0.1644
  C  C63  1  0.342100  0.147900  0.969000  1.0  0.6544
  C  C64  1  0.597000  0.529000  0.625800  1.0  0.157
  C  C65  1  0.617000  0.639000  0.589900  1.0  -0.2022
  C  C66  1  0.698900  0.673400  0.540400  1.0  0.1395
  C  C67  1  0.754000  0.585700  0.531100  1.0  -0.2014
  C  C68  1  0.737000  0.480700  0.569000  1.0  0.166
  C  C69  1  0.726000  0.791900  0.501100  1.0  0.0245
  C  C70  1  0.639000  0.849000  0.501300  1.0  -0.1432
  C  C71  1  0.663000  0.960000  0.463100  1.0  -0.0535
  C  C72  1  0.776000  0.021400  0.426600  1.0  -0.1148
  C  C73  1  0.870000  0.966000  0.426600  1.0  -0.0391
  C  C74  1  0.843000  0.851000  0.462200  1.0  -0.1177
  C  C75  1  0.802000  0.141000  0.385600  1.0  0.6722
  C  C76  1  0.733000  0.251200  0.121330  1.0  0.1725
  C  C77  1  0.755000  0.172800  0.158130  1.0  -0.2174
  C  C78  1  0.695900  0.026400  0.147430  1.0  0.1421
  C  C79  1  0.614000  0.980000  0.100130  1.0  -0.203
  C  C80  1  0.608000  0.073000  0.060730  1.0  0.1839
  C  C81  1  0.724000  0.933400  0.186730  1.0  0.0459
  C  C82  1  0.850000  0.993000  0.219730  1.0  -0.1446
  C  C83  1  0.870000  0.904000  0.259630  1.0  -0.0286
  C  C84  1  0.773000  0.753300  0.262730  1.0  -0.1109
  C  C85  1  0.668000  0.702000  0.225030  1.0  -0.0292
  C  C86  1  0.633300  0.782500  0.188830  1.0  -0.1678
  C  C87  1  0.805800  0.657900  0.302330  1.0  0.657
  C  C88  1  0.932000  0.403000  0.959130  1.0  0.156
  C  C89  1  0.022000  0.383000  0.923230  1.0  -0.199
  C  C90  1  0.974500  0.301100  0.873730  1.0  0.1387
  C  C91  1  0.831700  0.246000  0.864430  1.0  -0.2049
  C  C92  1  0.743700  0.263000  0.902330  1.0  0.1658
  C  C93  1  0.065900  0.274000  0.834430  1.0  0.0238
  C  C94  1  0.210000  0.361000  0.834630  1.0  -0.1487
  C  C95  1  0.297000  0.337000  0.796430  1.0  -0.06
  C  C96  1  0.245400  0.224000  0.759930  1.0  -0.1149
  C  C97  1  0.096000  0.130000  0.759930  1.0  -0.0392
  C  C98  1  0.008000  0.157000  0.795530  1.0  -0.1163
  C  C99  1  0.339000  0.198000  0.718930  1.0  0.6686
  C  C100  1  0.518200  0.267000  0.454670  1.0  0.1734
  C  C101  1  0.417800  0.245000  0.491470  1.0  -0.2173
  C  C102  1  0.330500  0.304100  0.480770  1.0  0.141
  C  C103  1  0.366000  0.386000  0.433470  1.0  -0.1978
  C  C104  1  0.465000  0.392000  0.394070  1.0  0.1854
  C  C105  1  0.209400  0.276000  0.520070  1.0  0.0452
  C  C106  1  0.143000  0.150000  0.553070  1.0  -0.1434
  C  C107  1  0.034000  0.130000  0.592970  1.0  -0.0253
  C  C108  1  0.980300  0.227000  0.596070  1.0  -0.1105
  C  C109  1  0.034000  0.332000  0.558370  1.0  -0.0315
  C  C110  1  0.149200  0.366700  0.522170  1.0  -0.1684
  C  C111  1  0.852100  0.194200  0.635670  1.0  0.655
  C  C112  1  0.471000  0.068000  0.292470  1.0  0.1556
  C  C113  1  0.361000  0.978000  0.256570  1.0  -0.2042
  C  C114  1  0.326600  0.025500  0.207070  1.0  0.1396
  C  C115  1  0.414300  0.168300  0.197770  1.0  -0.2078
  C  C116  1  0.519300  0.256300  0.235670  1.0  0.1645
  C  C117  1  0.208100  0.934100  0.167770  1.0  0.0242
  C  C118  1  0.151000  0.790000  0.167970  1.0  -0.1508
  C  C119  1  0.040000  0.703000  0.129770  1.0  -0.0595
  C  C120  1  0.978600  0.754600  0.093270  1.0  -0.1137
  C  C121  1  0.034000  0.904000  0.093270  1.0  -0.0386
  C  C122  1  0.149000  0.992000  0.128870  1.0  -0.1195
  C  C123  1  0.859000  0.661000  0.052270  1.0  0.6708
  N  N124  1  0.788200  0.452500  0.737300  1.0  -0.3493
  N  N125  1  0.657800  0.447100  0.616900  1.0  -0.3487
  N  N126  1  0.664300  0.211800  0.070630  1.0  -0.346
  N  N127  1  0.789300  0.342200  0.950230  1.0  -0.35
  N  N128  1  0.547500  0.335700  0.403970  1.0  -0.3488
  N  N129  1  0.552900  0.210700  0.283570  1.0  -0.3477
  O  O130  1  0.278200  0.193900  0.002500  1.0  -0.612
  O  O131  1  0.710700  0.183400  0.385900  1.0  -0.6098
  O  O132  1  0.913000  0.190800  0.353000  1.0  -0.6102
  O  O133  1  0.473100  0.186300  0.968700  1.0  -0.5871
  O  O134  1  0.915700  0.721800  0.335830  1.0  -0.612
  O  O135  1  0.472700  0.289300  0.719230  1.0  -0.6088
  O  O136  1  0.277800  0.087000  0.686330  1.0  -0.6077
  O  O137  1  0.713200  0.526900  0.302030  1.0  -0.5884
  O  O138  1  0.806100  0.084300  0.669170  1.0  -0.6107
  O  O139  1  0.816600  0.527300  0.052570  1.0  -0.6108
  O  O140  1  0.809200  0.722200  0.019670  1.0  -0.6131
  O  O141  1  0.813700  0.286800  0.635370  1.0  -0.586
