# generated using pymatgen
data_CoH16C24(NO2)2
_symmetry_space_group_name_H-M   'P 1'
_cell_length_a   10.59900000
_cell_length_b   17.02180000
_cell_length_c   18.30640000
_cell_angle_alpha   106.07300000
_cell_angle_beta   90.00000000
_cell_angle_gamma   90.00000000
_symmetry_Int_Tables_number   1
_chemical_formula_structural   CoH16C24(NO2)2
_chemical_formula_sum   'Co4 H64 C96 N8 O16'
_cell_volume   3173.62722919
_cell_formula_units_Z   4
loop_
 _symmetry_equiv_pos_site_id
 _symmetry_equiv_pos_as_xyz
  1  'x, y, z'
loop_
 _atom_site_type_symbol
 _atom_site_label
 _atom_site_symmetry_multiplicity
 _atom_site_fract_x
 _atom_site_fract_y
 _atom_site_fract_z
 _atom_site_occupancy
 _atom_site_charge
  Co  Co1  1  0.534950  0.118800  0.602760  1.0  0.8645
  Co  Co2  1  0.500090  0.868820  0.852840  1.0  0.7502
  Co  Co3  1  0.465050  0.618800  0.102760  1.0  0.8664
  Co  Co4  1  0.499910  0.368820  0.352840  1.0  0.75
  H  H5  1  0.415700  0.973900  0.372400  1.0  0.1137
  H  H6  1  0.945200  0.900800  0.088900  1.0  0.1146
  H  H7  1  0.406200  0.387700  0.084400  1.0  0.122
  H  H8  1  0.681200  0.956100  0.980500  1.0  0.0842
  H  H9  1  0.681700  0.278000  0.225300  1.0  0.0978
  H  H10  1  0.381700  0.411600  0.213700  1.0  0.0741
  H  H11  1  0.400300  0.852800  0.123200  1.0  0.1268
  H  H12  1  0.937800  0.720900  0.887600  1.0  0.1185
  H  H13  1  0.708600  0.989100  0.112000  1.0  0.1229
  H  H14  1  0.715400  0.252500  0.097000  1.0  0.128
  H  H15  1  0.884000  0.958000  0.858600  1.0  0.1088
  H  H16  1  0.392100  0.948100  0.241300  1.0  0.1186
  H  H17  1  0.771100  0.300400  0.989600  1.0  0.1137
  H  H18  1  0.110300  0.776900  0.847600  1.0  0.1071
  H  H19  1  0.389400  0.297200  0.963900  1.0  0.1174
  H  H20  1  0.062100  0.017400  0.815200  1.0  0.118
  H  H21  1  0.767800  0.935600  0.213800  1.0  0.0994
  H  H22  1  0.446400  0.074400  0.744700  1.0  0.1021
  H  H23  1  0.379600  0.827000  0.991400  1.0  0.0827
  H  H24  1  0.137600  0.944700  0.573700  1.0  0.1237
  H  H25  1  0.724600  0.725500  0.917600  1.0  0.1275
  H  H26  1  0.416000  0.255300  0.831400  1.0  0.1058
  H  H27  1  0.111700  0.964500  0.038100  1.0  0.1124
  H  H28  1  0.306100  0.017700  0.538700  1.0  0.0831
  H  H29  1  0.280800  0.006400  0.786400  1.0  0.1138
  H  H30  1  0.868600  0.784700  0.130900  1.0  0.134
  H  H31  1  0.792600  0.269300  0.857200  1.0  0.1068
  H  H32  1  0.796300  0.958500  0.345000  1.0  0.1289
  H  H33  1  0.897400  0.773400  0.662700  1.0  0.1112
  H  H34  1  0.696900  0.728400  0.169400  1.0  0.0902
  H  H35  1  0.067500  0.831200  0.624100  1.0  0.1023
  H  H36  1  0.559200  0.665100  0.961200  1.0  0.0754
  H  H37  1  0.584300  0.473900  0.872400  1.0  0.1139
  H  H38  1  0.054800  0.400800  0.588900  1.0  0.1143
  H  H39  1  0.593800  0.887700  0.584400  1.0  0.1218
  H  H40  1  0.318800  0.456100  0.480500  1.0  0.0841
  H  H41  1  0.318300  0.778000  0.725300  1.0  0.0974
  H  H42  1  0.618300  0.911600  0.713700  1.0  0.0737
  H  H43  1  0.599700  0.352800  0.623200  1.0  0.1258
  H  H44  1  0.062200  0.220900  0.387600  1.0  0.1188
  H  H45  1  0.291400  0.489100  0.612000  1.0  0.1234
  H  H46  1  0.284600  0.752500  0.597000  1.0  0.1278
  H  H47  1  0.116000  0.458000  0.358600  1.0  0.1088
  H  H48  1  0.607900  0.448100  0.741300  1.0  0.1189
  H  H49  1  0.228900  0.800400  0.489600  1.0  0.1134
  H  H50  1  0.889700  0.276900  0.347600  1.0  0.107
  H  H51  1  0.610600  0.797200  0.463900  1.0  0.1181
  H  H52  1  0.937900  0.517400  0.315200  1.0  0.1181
  H  H53  1  0.232200  0.435600  0.713800  1.0  0.0995
  H  H54  1  0.553600  0.574400  0.244700  1.0  0.1021
  H  H55  1  0.620400  0.327000  0.491400  1.0  0.0831
  H  H56  1  0.862400  0.444700  0.073700  1.0  0.1227
  H  H57  1  0.275400  0.225500  0.417600  1.0  0.1272
  H  H58  1  0.584000  0.755300  0.331400  1.0  0.1063
  H  H59  1  0.888300  0.464500  0.538100  1.0  0.1126
  H  H60  1  0.693900  0.517700  0.038700  1.0  0.0835
  H  H61  1  0.719200  0.506400  0.286400  1.0  0.1138
  H  H62  1  0.131400  0.284700  0.630900  1.0  0.1344
  H  H63  1  0.207400  0.769300  0.357200  1.0  0.1072
  H  H64  1  0.203700  0.458500  0.845000  1.0  0.128
  H  H65  1  0.102600  0.273400  0.162700  1.0  0.1115
  H  H66  1  0.303100  0.228400  0.669400  1.0  0.0907
  H  H67  1  0.932500  0.331200  0.124100  1.0  0.1024
  H  H68  1  0.440800  0.165100  0.461200  1.0  0.0755
  C  C69  1  0.488200  0.967400  0.340700  1.0  -0.0634
  C  C70  1  0.975900  0.876800  0.039000  1.0  -0.125
  C  C71  1  0.463300  0.363400  0.111800  1.0  -0.1957
  C  C72  1  0.243500  0.913100  0.911900  1.0  0.6426
  C  C73  1  0.761300  0.824400  0.793800  1.0  0.6615
  C  C74  1  0.563100  0.923400  0.132500  1.0  0.1041
  C  C75  1  0.077000  0.932900  0.714000  1.0  0.0419
  C  C76  1  0.922300  0.804400  0.993400  1.0  0.0311
  C  C77  1  0.624500  0.998300  0.458400  1.0  0.7137
  C  C78  1  0.622600  0.242800  0.748400  1.0  0.6727
  C  C79  1  0.622400  0.935500  0.009900  1.0  0.1702
  C  C80  1  0.607200  0.974400  0.372500  1.0  -0.1097
  C  C81  1  0.624900  0.300100  0.196100  1.0  0.1602
  C  C82  1  0.124600  0.876300  0.938900  1.0  -0.101
  C  C83  1  0.869600  0.859400  0.765700  1.0  -0.1127
  C  C84  1  0.449600  0.377800  0.189600  1.0  0.1647
  C  C85  1  0.459600  0.874800  0.095200  1.0  -0.1859
  C  C86  1  0.557000  0.315400  0.074700  1.0  0.1133
  C  C87  1  0.579600  0.938600  0.215600  1.0  0.031
  C  C88  1  0.974300  0.769200  0.919800  1.0  -0.1301
  C  C89  1  0.640900  0.954400  0.089100  1.0  -0.2005
  C  C90  1  0.607900  0.265900  0.833000  1.0  -0.0987
  C  C91  1  0.644700  0.284000  0.120100  1.0  -0.1969
  C  C92  1  0.920000  0.932200  0.810500  1.0  -0.0701
  C  C93  1  0.812800  0.765400  0.019500  1.0  0.118
  C  C94  1  0.474200  0.951000  0.262800  1.0  -0.1291
  C  C95  1  0.183900  0.972800  0.686200  1.0  0.1087
  C  C96  1  0.698300  0.292300  0.958100  1.0  -0.1422
  C  C97  1  0.575900  0.297700  0.990800  1.0  0.0177
  C  C98  1  0.073800  0.803300  0.895600  1.0  -0.047
  C  C99  1  0.471900  0.288900  0.942800  1.0  -0.12
  C  C100  1  0.026500  0.968400  0.783900  1.0  -0.1285
  C  C101  1  0.696200  0.943100  0.246200  1.0  -0.1327
  C  C102  1  0.382300  0.048500  0.710000  1.0  0.1413
  C  C103  1  0.447500  0.860200  0.016400  1.0  0.1553
  C  C104  1  0.196900  0.972600  0.610800  1.0  -0.1997
  C  C105  1  0.720600  0.726700  0.969700  1.0  -0.2078
  C  C106  1  0.487400  0.268000  0.863900  1.0  -0.0404
  C  C107  1  0.077400  0.913900  0.009100  1.0  -0.0734
  C  C108  1  0.300700  0.015000  0.589800  1.0  0.1651
  C  C109  1  0.282100  0.008800  0.735200  1.0  -0.1729
  C  C110  1  0.803800  0.761900  0.095500  1.0  -0.2181
  C  C111  1  0.710700  0.274900  0.879100  1.0  -0.0411
  C  C112  1  0.714000  0.958600  0.324400  1.0  -0.0734
  C  C113  1  0.929300  0.823400  0.694400  1.0  -0.0716
  C  C114  1  0.704200  0.726400  0.117200  1.0  0.163
  C  C115  1  0.028700  0.858100  0.671200  1.0  -0.1395
  C  C116  1  0.623000  0.690100  0.996400  1.0  0.1714
  C  C117  1  0.511800  0.467400  0.840700  1.0  -0.065
  C  C118  1  0.024100  0.376800  0.539000  1.0  -0.1259
  C  C119  1  0.536700  0.863400  0.611800  1.0  -0.1956
  C  C120  1  0.756500  0.413100  0.411900  1.0  0.6422
  C  C121  1  0.238700  0.324400  0.293800  1.0  0.6609
  C  C122  1  0.436900  0.423400  0.632500  1.0  0.1042
  C  C123  1  0.923000  0.432900  0.214000  1.0  0.0431
  C  C124  1  0.077700  0.304400  0.493400  1.0  0.0303
  C  C125  1  0.375500  0.498300  0.958400  1.0  0.7189
  C  C126  1  0.377400  0.742800  0.248400  1.0  0.674
  C  C127  1  0.377600  0.435500  0.509900  1.0  0.1695
  C  C128  1  0.392800  0.474400  0.872500  1.0  -0.1081
  C  C129  1  0.375100  0.800100  0.696100  1.0  0.1608
  C  C130  1  0.875400  0.376300  0.438900  1.0  -0.102
  C  C131  1  0.130400  0.359400  0.265700  1.0  -0.1131
  C  C132  1  0.550400  0.877800  0.689600  1.0  0.1646
  C  C133  1  0.540400  0.374800  0.595200  1.0  -0.1867
  C  C134  1  0.443000  0.815400  0.574700  1.0  0.1139
  C  C135  1  0.420400  0.438600  0.715600  1.0  0.0309
  C  C136  1  0.025700  0.269200  0.419800  1.0  -0.1294
  C  C137  1  0.359100  0.454400  0.589100  1.0  -0.202
  C  C138  1  0.392100  0.765900  0.333000  1.0  -0.0982
  C  C139  1  0.355300  0.784000  0.620100  1.0  -0.197
  C  C140  1  0.080000  0.432200  0.310500  1.0  -0.0699
  C  C141  1  0.187200  0.265400  0.519500  1.0  0.1161
  C  C142  1  0.525800  0.451000  0.762800  1.0  -0.1304
  C  C143  1  0.816100  0.472800  0.186200  1.0  0.1075
  C  C144  1  0.301700  0.792300  0.458100  1.0  -0.1412
  C  C145  1  0.424100  0.797700  0.490800  1.0  0.0178
  C  C146  1  0.926200  0.303300  0.395600  1.0  -0.0463
  C  C147  1  0.528100  0.788900  0.442800  1.0  -0.122
  C  C148  1  0.973500  0.468400  0.283900  1.0  -0.1292
  C  C149  1  0.303800  0.443100  0.746200  1.0  -0.1313
  C  C150  1  0.617700  0.548500  0.210000  1.0  0.141
  C  C151  1  0.552500  0.360200  0.516400  1.0  0.1547
  C  C152  1  0.803100  0.472600  0.110800  1.0  -0.1998
  C  C153  1  0.279400  0.226700  0.469700  1.0  -0.2085
  C  C154  1  0.512600  0.768000  0.363900  1.0  -0.0396
  C  C155  1  0.922600  0.413900  0.509100  1.0  -0.0749
  C  C156  1  0.699300  0.515000  0.089800  1.0  0.1657
  C  C157  1  0.717900  0.508800  0.235200  1.0  -0.1723
  C  C158  1  0.196200  0.261900  0.595500  1.0  -0.2184
  C  C159  1  0.289300  0.774900  0.379100  1.0  -0.0405
  C  C160  1  0.286000  0.458600  0.824400  1.0  -0.0734
  C  C161  1  0.070700  0.323400  0.194400  1.0  -0.0749
  C  C162  1  0.295800  0.226400  0.617200  1.0  0.1633
  C  C163  1  0.971300  0.358100  0.171200  1.0  -0.1399
  C  C164  1  0.377000  0.190100  0.496400  1.0  0.1703
  N  N165  1  0.525600  0.347400  0.232700  1.0  -0.3339
  N  N166  1  0.388100  0.050100  0.637200  1.0  -0.3179
  N  N167  1  0.610400  0.686800  0.067800  1.0  -0.3617
  N  N168  1  0.527800  0.890900  0.974600  1.0  -0.324
  N  N169  1  0.474400  0.847400  0.732700  1.0  -0.3328
  N  N170  1  0.611900  0.550100  0.137200  1.0  -0.3228
  N  N171  1  0.389600  0.186800  0.567800  1.0  -0.3613
  N  N172  1  0.472200  0.390900  0.474600  1.0  -0.3241
  O  O173  1  0.535800  0.196700  0.710000  1.0  -0.621
  O  O174  1  0.537700  0.039800  0.495200  1.0  -0.6089
  O  O175  1  0.689800  0.874500  0.840600  1.0  -0.6048
  O  O176  1  0.309500  0.862800  0.864400  1.0  -0.5825
  O  O177  1  0.717900  0.973100  0.484600  1.0  -0.5898
  O  O178  1  0.266500  0.988100  0.937300  1.0  -0.585
  O  O179  1  0.740600  0.749000  0.769300  1.0  -0.5767
  O  O180  1  0.721600  0.263700  0.718800  1.0  -0.6094
  O  O181  1  0.464200  0.696700  0.210000  1.0  -0.6225
  O  O182  1  0.462300  0.539800  0.995200  1.0  -0.6088
  O  O183  1  0.310200  0.374500  0.340600  1.0  -0.6047
  O  O184  1  0.690500  0.362800  0.364400  1.0  -0.583
  O  O185  1  0.282100  0.473100  0.984600  1.0  -0.593
  O  O186  1  0.733500  0.488100  0.437300  1.0  -0.584
  O  O187  1  0.259400  0.249000  0.269300  1.0  -0.577
  O  O188  1  0.278400  0.763700  0.218800  1.0  -0.608
