# generated using pymatgen
data_Cu2H15C27NO8
_symmetry_space_group_name_H-M   'P 1'
_cell_length_a   26.07000000
_cell_length_b   26.07000000
_cell_length_c   18.60100000
_cell_angle_alpha   90.00000000
_cell_angle_beta   90.00000000
_cell_angle_gamma   90.00000000
_symmetry_Int_Tables_number   1
_chemical_formula_structural   Cu2H15C27NO8
_chemical_formula_sum   'Cu16 H120 C216 N8 O64'
_cell_volume   12642.07478490
_cell_formula_units_Z   8
loop_
 _symmetry_equiv_pos_site_id
 _symmetry_equiv_pos_as_xyz
  1  'x, y, z'
loop_
 _atom_site_type_symbol
 _atom_site_label
 _atom_site_symmetry_multiplicity
 _atom_site_fract_x
 _atom_site_fract_y
 _atom_site_fract_z
 _atom_site_occupancy
 _atom_site_charge
  Cu  Cu1  1  0.787570  0.778740  0.787280  1.0  0.9558
  Cu  Cu2  1  0.700060  0.731220  0.286380  1.0  0.8603
  Cu  Cu3  1  0.699080  0.781080  0.856590  1.0  0.9439
  Cu  Cu4  1  0.787950  0.732410  0.356100  1.0  0.8794
  Cu  Cu5  1  0.212430  0.221260  0.287280  1.0  0.956
  Cu  Cu6  1  0.299940  0.268780  0.786380  1.0  0.8615
  Cu  Cu7  1  0.300920  0.218920  0.356590  1.0  0.945
  Cu  Cu8  1  0.212050  0.267590  0.856100  1.0  0.8791
  Cu  Cu9  1  0.221260  0.787570  0.037280  1.0  0.9551
  Cu  Cu10  1  0.268780  0.700060  0.536380  1.0  0.861
  Cu  Cu11  1  0.218920  0.699080  0.106590  1.0  0.9442
  Cu  Cu12  1  0.267590  0.787950  0.606100  1.0  0.8803
  Cu  Cu13  1  0.778740  0.212430  0.537280  1.0  0.9566
  Cu  Cu14  1  0.731220  0.299940  0.036380  1.0  0.8617
  Cu  Cu15  1  0.781080  0.300920  0.606590  1.0  0.9455
  Cu  Cu16  1  0.732410  0.212050  0.106100  1.0  0.881
  H  H17  1  0.729200  0.754200  0.571000  1.0  0.0995
  H  H18  1  0.596500  0.768600  0.676700  1.0  0.117
  H  H19  1  0.598800  0.735900  0.465300  1.0  0.1285
  H  H20  1  0.520300  0.810300  0.639200  1.0  0.1277
  H  H21  1  0.432800  0.802600  0.648500  1.0  0.1074
  H  H22  1  0.434200  0.689900  0.504400  1.0  0.11
  H  H23  1  0.520000  0.695100  0.500600  1.0  0.1075
  H  H24  1  0.812400  0.897300  0.307100  1.0  0.1186
  H  H25  1  0.810600  0.982800  0.272700  1.0  0.1247
  H  H26  1  0.662400  0.968400  0.217200  1.0  0.1215
  H  H27  1  0.664200  0.882800  0.251600  1.0  0.111
  H  H28  1  0.737700  0.109500  0.926000  1.0  0.1156
  H  H29  1  0.810200  0.940600  0.753200  1.0  0.1261
  H  H30  1  0.805700  0.031900  0.746100  1.0  0.1228
  H  H31  1  0.695200  0.031800  0.894900  1.0  0.1262
  H  H32  1  0.691100  0.945200  0.888400  1.0  0.1018
  H  H33  1  0.768000  0.107100  0.717500  1.0  0.1071
  H  H34  1  0.757900  0.240000  0.821100  1.0  0.1052
  H  H35  1  0.807000  0.613000  0.822900  1.0  0.1179
  H  H36  1  0.808700  0.530200  0.868500  1.0  0.126
  H  H37  1  0.662700  0.545900  0.934600  1.0  0.1432
  H  H38  1  0.661100  0.628700  0.888900  1.0  0.1194
  H  H39  1  0.660000  0.134200  0.185200  1.0  0.1131
  H  H40  1  0.663300  0.052200  0.233400  1.0  0.1237
  H  H41  1  0.813100  0.043400  0.184000  1.0  0.1227
  H  H42  1  0.809800  0.125500  0.135800  1.0  0.1143
  H  H43  1  0.652500  0.389500  0.993000  1.0  0.116
  H  H44  1  0.656100  0.470700  0.942300  1.0  0.1297
  H  H45  1  0.808000  0.454800  0.913100  1.0  0.1274
  H  H46  1  0.804400  0.373500  0.963900  1.0  0.1143
  H  H47  1  0.270800  0.245800  0.071000  1.0  0.0998
  H  H48  1  0.403500  0.231400  0.176700  1.0  0.1167
  H  H49  1  0.401200  0.264100  0.965300  1.0  0.1283
  H  H50  1  0.479700  0.189700  0.139200  1.0  0.127
  H  H51  1  0.567200  0.197400  0.148500  1.0  0.1077
  H  H52  1  0.565800  0.310100  0.004400  1.0  0.1099
  H  H53  1  0.480000  0.304900  0.000600  1.0  0.108
  H  H54  1  0.187600  0.102700  0.807100  1.0  0.1186
  H  H55  1  0.189400  0.017200  0.772700  1.0  0.125
  H  H56  1  0.337600  0.031600  0.717200  1.0  0.1209
  H  H57  1  0.335800  0.117200  0.751600  1.0  0.1112
  H  H58  1  0.262300  0.890500  0.426000  1.0  0.1157
  H  H59  1  0.189800  0.059400  0.253200  1.0  0.1262
  H  H60  1  0.194300  0.968100  0.246100  1.0  0.1231
  H  H61  1  0.304800  0.968200  0.394900  1.0  0.1263
  H  H62  1  0.308900  0.054800  0.388400  1.0  0.1019
  H  H63  1  0.232000  0.892900  0.217500  1.0  0.107
  H  H64  1  0.242100  0.760000  0.321100  1.0  0.1047
  H  H65  1  0.193000  0.387000  0.322900  1.0  0.1174
  H  H66  1  0.191300  0.469800  0.368500  1.0  0.1266
  H  H67  1  0.337300  0.454100  0.434600  1.0  0.1434
  H  H68  1  0.338900  0.371300  0.388900  1.0  0.1198
  H  H69  1  0.340000  0.865800  0.685200  1.0  0.1128
  H  H70  1  0.336700  0.947800  0.733400  1.0  0.1244
  H  H71  1  0.186900  0.956600  0.684000  1.0  0.1235
  H  H72  1  0.190200  0.874500  0.635800  1.0  0.1134
  H  H73  1  0.347500  0.610500  0.493000  1.0  0.1167
  H  H74  1  0.343900  0.529300  0.442300  1.0  0.1293
  H  H75  1  0.192000  0.545200  0.413100  1.0  0.1279
  H  H76  1  0.195600  0.626500  0.463900  1.0  0.1143
  H  H77  1  0.245800  0.729200  0.821000  1.0  0.1014
  H  H78  1  0.231400  0.596500  0.926700  1.0  0.1169
  H  H79  1  0.264100  0.598800  0.715300  1.0  0.1281
  H  H80  1  0.189700  0.520300  0.889200  1.0  0.128
  H  H81  1  0.197400  0.432800  0.898500  1.0  0.107
  H  H82  1  0.310100  0.434200  0.754400  1.0  0.1095
  H  H83  1  0.304900  0.520000  0.750600  1.0  0.1083
  H  H84  1  0.102700  0.812400  0.557100  1.0  0.1187
  H  H85  1  0.017200  0.810600  0.522700  1.0  0.1253
  H  H86  1  0.031600  0.662400  0.467200  1.0  0.1214
  H  H87  1  0.117200  0.664200  0.501600  1.0  0.1109
  H  H88  1  0.890500  0.737700  0.176000  1.0  0.1156
  H  H89  1  0.059400  0.810200  0.003200  1.0  0.1268
  H  H90  1  0.968100  0.805700  0.996100  1.0  0.1236
  H  H91  1  0.968200  0.695200  0.144900  1.0  0.126
  H  H92  1  0.054800  0.691100  0.138400  1.0  0.1016
  H  H93  1  0.892900  0.768000  0.967500  1.0  0.1072
  H  H94  1  0.760000  0.757900  0.071100  1.0  0.107
  H  H95  1  0.387000  0.807000  0.072900  1.0  0.1174
  H  H96  1  0.469800  0.808700  0.118500  1.0  0.1286
  H  H97  1  0.454100  0.662700  0.184600  1.0  0.1449
  H  H98  1  0.371300  0.661100  0.138900  1.0  0.1202
  H  H99  1  0.865800  0.660000  0.435200  1.0  0.1134
  H  H100  1  0.947800  0.663300  0.483400  1.0  0.1243
  H  H101  1  0.956600  0.813100  0.434000  1.0  0.1248
  H  H102  1  0.874500  0.809800  0.385800  1.0  0.115
  H  H103  1  0.610500  0.652500  0.243000  1.0  0.1163
  H  H104  1  0.529300  0.656100  0.192300  1.0  0.1315
  H  H105  1  0.545200  0.808000  0.163100  1.0  0.1292
  H  H106  1  0.626500  0.804400  0.213900  1.0  0.1153
  H  H107  1  0.754200  0.270800  0.321000  1.0  0.1011
  H  H108  1  0.768600  0.403500  0.426700  1.0  0.1166
  H  H109  1  0.735900  0.401200  0.215300  1.0  0.1278
  H  H110  1  0.810300  0.479700  0.389200  1.0  0.1279
  H  H111  1  0.802600  0.567200  0.398500  1.0  0.1068
  H  H112  1  0.689900  0.565800  0.254400  1.0  0.1097
  H  H113  1  0.695100  0.480000  0.250600  1.0  0.1084
  H  H114  1  0.897300  0.187600  0.057100  1.0  0.119
  H  H115  1  0.982800  0.189400  0.022700  1.0  0.125
  H  H116  1  0.968400  0.337600  0.967200  1.0  0.1214
  H  H117  1  0.882800  0.335800  0.001600  1.0  0.1102
  H  H118  1  0.109500  0.262300  0.676000  1.0  0.116
  H  H119  1  0.940600  0.189800  0.503200  1.0  0.1266
  H  H120  1  0.031900  0.194300  0.496100  1.0  0.123
  H  H121  1  0.031800  0.304800  0.644900  1.0  0.1264
  H  H122  1  0.945200  0.308900  0.638400  1.0  0.102
  H  H123  1  0.107100  0.232000  0.467500  1.0  0.1069
  H  H124  1  0.240000  0.242100  0.571100  1.0  0.107
  H  H125  1  0.613000  0.193000  0.572900  1.0  0.1173
  H  H126  1  0.530200  0.191300  0.618500  1.0  0.1284
  H  H127  1  0.545900  0.337300  0.684600  1.0  0.1452
  H  H128  1  0.628700  0.338900  0.638900  1.0  0.1201
  H  H129  1  0.134200  0.340000  0.935200  1.0  0.114
  H  H130  1  0.052200  0.336700  0.983400  1.0  0.1252
  H  H131  1  0.043400  0.186900  0.934000  1.0  0.1244
  H  H132  1  0.125500  0.190200  0.885800  1.0  0.1155
  H  H133  1  0.389500  0.347500  0.743000  1.0  0.116
  H  H134  1  0.470700  0.343900  0.692300  1.0  0.1317
  H  H135  1  0.454800  0.192000  0.663100  1.0  0.1292
  H  H136  1  0.373500  0.195600  0.713900  1.0  0.1153
  C  C137  1  0.365900  0.745800  0.572600  1.0  0.7045
  C  C138  1  0.693300  0.737600  0.441500  1.0  0.7
  C  C139  1  0.669000  0.745500  0.510900  1.0  -0.0345
  C  C140  1  0.693600  0.755000  0.570900  1.0  -0.028
  C  C141  1  0.667000  0.766400  0.635900  1.0  -0.1328
  C  C142  1  0.614700  0.763200  0.634400  1.0  -0.0269
  C  C143  1  0.587700  0.752000  0.571600  1.0  0.0372
  C  C144  1  0.615600  0.743100  0.508200  1.0  -0.027
  C  C145  1  0.699000  0.772300  0.703800  1.0  0.7244
  C  C146  1  0.530300  0.749300  0.572200  1.0  0.0962
  C  C147  1  0.503000  0.784800  0.613900  1.0  -0.143
  C  C148  1  0.450400  0.781500  0.616700  1.0  -0.074
  C  C149  1  0.421900  0.746800  0.572600  1.0  -0.1059
  C  C150  1  0.450600  0.714600  0.532300  1.0  -0.0687
  C  C151  1  0.502500  0.717100  0.531400  1.0  -0.1159
  C  C152  1  0.743000  0.824300  0.316200  1.0  0.5682
  C  C153  1  0.738500  0.881600  0.282800  1.0  -0.041
  C  C154  1  0.782400  0.911600  0.289100  1.0  -0.0368
  C  C155  1  0.781300  0.962800  0.268400  1.0  -0.0922
  C  C156  1  0.736300  0.984100  0.241500  1.0  0.0406
  C  C157  1  0.692500  0.954100  0.235200  1.0  -0.1214
  C  C158  1  0.693500  0.902900  0.255800  1.0  -0.0565
  C  C159  1  0.738300  0.206000  0.952400  1.0  0.7263
  C  C160  1  0.744600  0.180000  0.884300  1.0  -0.1713
  C  C161  1  0.743700  0.127100  0.883200  1.0  -0.045
  C  C162  1  0.747100  0.879200  0.820100  1.0  0.705
  C  C163  1  0.747100  0.933600  0.819400  1.0  -0.0588
  C  C164  1  0.785200  0.958900  0.778200  1.0  -0.0673
  C  C165  1  0.783700  0.014300  0.776700  1.0  -0.1195
  C  C166  1  0.749800  0.041800  0.819900  1.0  0.075
  C  C167  1  0.716700  0.014400  0.863300  1.0  -0.1622
  C  C168  1  0.715400  0.962100  0.860500  1.0  -0.0563
  C  C169  1  0.774500  0.206700  0.690500  1.0  0.6687
  C  C170  1  0.766300  0.178300  0.757000  1.0  -0.1477
  C  C171  1  0.762600  0.125600  0.759700  1.0  -0.0765
  C  C172  1  0.751400  0.099000  0.820700  1.0  0.032
  C  C173  1  0.756400  0.204400  0.821200  1.0  0.0194
  C  C174  1  0.725400  0.688400  0.843700  1.0  0.1471
  C  C175  1  0.733900  0.629000  0.851400  1.0  -0.0707
  C  C176  1  0.778100  0.599500  0.845300  1.0  -0.0684
  C  C177  1  0.779100  0.549900  0.872600  1.0  -0.0784
  C  C178  1  0.735900  0.529800  0.906100  1.0  -0.0114
  C  C179  1  0.691700  0.559300  0.912200  1.0  -0.1173
  C  C180  1  0.690700  0.608900  0.884800  1.0  -0.1159
  C  C181  1  0.690700  0.116000  0.185000  1.0  0.1388
  C  C182  1  0.692700  0.066900  0.213800  1.0  -0.1334
  C  C183  1  0.738500  0.039700  0.213400  1.0  0.0306
  C  C184  1  0.782400  0.061600  0.184200  1.0  -0.0868
  C  C185  1  0.780500  0.110800  0.155400  1.0  0.1424
  C  C186  1  0.683690  0.402590  0.977000  1.0  0.1421
  C  C187  1  0.685840  0.451250  0.946600  1.0  -0.1399
  C  C188  1  0.732400  0.470800  0.922700  1.0  -0.0076
  C  C189  1  0.776800  0.441700  0.929100  1.0  -0.1277
  C  C190  1  0.774690  0.393000  0.959500  1.0  0.1485
  C  C191  1  0.634100  0.254200  0.072600  1.0  0.7043
  C  C192  1  0.306700  0.262400  0.941500  1.0  0.7003
  C  C193  1  0.331000  0.254500  0.010900  1.0  -0.0345
  C  C194  1  0.306400  0.245000  0.070900  1.0  -0.0286
  C  C195  1  0.333000  0.233600  0.135900  1.0  -0.1326
  C  C196  1  0.385300  0.236800  0.134400  1.0  -0.0269
  C  C197  1  0.412300  0.248000  0.071600  1.0  0.0372
  C  C198  1  0.384400  0.256900  0.008200  1.0  -0.0269
  C  C199  1  0.301000  0.227700  0.203800  1.0  0.7235
  C  C200  1  0.469700  0.250700  0.072200  1.0  0.0962
  C  C201  1  0.497000  0.215200  0.113900  1.0  -0.1415
  C  C202  1  0.549600  0.218500  0.116700  1.0  -0.0718
  C  C203  1  0.578100  0.253200  0.072600  1.0  -0.1041
  C  C204  1  0.549400  0.285400  0.032300  1.0  -0.0684
  C  C205  1  0.497500  0.282900  0.031400  1.0  -0.1157
  C  C206  1  0.257000  0.175700  0.816200  1.0  0.5681
  C  C207  1  0.261500  0.118400  0.782800  1.0  -0.0415
  C  C208  1  0.217600  0.088400  0.789100  1.0  -0.0376
  C  C209  1  0.218700  0.037200  0.768400  1.0  -0.094
  C  C210  1  0.263700  0.015900  0.741500  1.0  0.0406
  C  C211  1  0.307500  0.045900  0.735200  1.0  -0.1216
  C  C212  1  0.306500  0.097100  0.755800  1.0  -0.0563
  C  C213  1  0.261700  0.794000  0.452400  1.0  0.7257
  C  C214  1  0.255400  0.820000  0.384300  1.0  -0.1714
  C  C215  1  0.256300  0.872900  0.383200  1.0  -0.0436
  C  C216  1  0.252900  0.120800  0.320100  1.0  0.706
  C  C217  1  0.252900  0.066400  0.319400  1.0  -0.0594
  C  C218  1  0.214800  0.041100  0.278200  1.0  -0.0677
  C  C219  1  0.216300  0.985700  0.276700  1.0  -0.1192
  C  C220  1  0.250200  0.958200  0.319900  1.0  0.0747
  C  C221  1  0.283300  0.985600  0.363300  1.0  -0.1626
  C  C222  1  0.284600  0.037900  0.360500  1.0  -0.0551
  C  C223  1  0.225500  0.793300  0.190500  1.0  0.6694
  C  C224  1  0.233700  0.821700  0.257000  1.0  -0.1492
  C  C225  1  0.237400  0.874400  0.259700  1.0  -0.0747
  C  C226  1  0.248600  0.901000  0.320700  1.0  0.0323
  C  C227  1  0.243600  0.795600  0.321200  1.0  0.0211
  C  C228  1  0.274600  0.311600  0.343700  1.0  0.1463
  C  C229  1  0.266100  0.371000  0.351400  1.0  -0.0719
  C  C230  1  0.221900  0.400500  0.345300  1.0  -0.0688
  C  C231  1  0.220900  0.450100  0.372600  1.0  -0.0788
  C  C232  1  0.264100  0.470200  0.406100  1.0  -0.0112
  C  C233  1  0.308300  0.440700  0.412200  1.0  -0.1164
  C  C234  1  0.309300  0.391100  0.384800  1.0  -0.1131
  C  C235  1  0.309300  0.884000  0.685000  1.0  0.1406
  C  C236  1  0.307300  0.933100  0.713800  1.0  -0.1322
  C  C237  1  0.261500  0.960300  0.713400  1.0  0.0308
  C  C238  1  0.217600  0.938400  0.684200  1.0  -0.0888
  C  C239  1  0.219500  0.889200  0.655400  1.0  0.1429
  C  C240  1  0.316310  0.597410  0.477000  1.0  0.1425
  C  C241  1  0.314160  0.548750  0.446600  1.0  -0.1371
  C  C242  1  0.267600  0.529200  0.422700  1.0  -0.008
  C  C243  1  0.223200  0.558300  0.429100  1.0  -0.1284
  C  C244  1  0.225310  0.607000  0.459500  1.0  0.147
  C  C245  1  0.254200  0.365900  0.822600  1.0  0.7037
  C  C246  1  0.262400  0.693300  0.691500  1.0  0.7009
  C  C247  1  0.254500  0.669000  0.760900  1.0  -0.0339
  C  C248  1  0.245000  0.693600  0.820900  1.0  -0.0242
  C  C249  1  0.233600  0.667000  0.885900  1.0  -0.1345
  C  C250  1  0.236800  0.614700  0.884400  1.0  -0.0261
  C  C251  1  0.248000  0.587700  0.821600  1.0  0.0384
  C  C252  1  0.256900  0.615600  0.758200  1.0  -0.0249
  C  C253  1  0.227700  0.699000  0.953800  1.0  0.7265
  C  C254  1  0.250700  0.530300  0.822200  1.0  0.0967
  C  C255  1  0.215200  0.503000  0.863900  1.0  -0.1408
  C  C256  1  0.218500  0.450400  0.866700  1.0  -0.0708
  C  C257  1  0.253200  0.421900  0.822600  1.0  -0.1062
  C  C258  1  0.285400  0.450600  0.782300  1.0  -0.0674
  C  C259  1  0.282900  0.502500  0.781400  1.0  -0.1121
  C  C260  1  0.175700  0.743000  0.566200  1.0  0.567
  C  C261  1  0.118400  0.738500  0.532800  1.0  -0.0432
  C  C262  1  0.088400  0.782400  0.539100  1.0  -0.039
  C  C263  1  0.037200  0.781300  0.518400  1.0  -0.0951
  C  C264  1  0.015900  0.736300  0.491500  1.0  0.0409
  C  C265  1  0.045900  0.692500  0.485200  1.0  -0.1233
  C  C266  1  0.097100  0.693500  0.505800  1.0  -0.0569
  C  C267  1  0.794000  0.738300  0.202400  1.0  0.7268
  C  C268  1  0.820000  0.744600  0.134300  1.0  -0.1673
  C  C269  1  0.872900  0.743700  0.133200  1.0  -0.0444
  C  C270  1  0.120800  0.747100  0.070100  1.0  0.7037
  C  C271  1  0.066400  0.747100  0.069400  1.0  -0.0597
  C  C272  1  0.041100  0.785200  0.028200  1.0  -0.0707
  C  C273  1  0.985700  0.783700  0.026700  1.0  -0.1222
  C  C274  1  0.958200  0.749800  0.069900  1.0  0.073
  C  C275  1  0.985600  0.716700  0.113300  1.0  -0.1648
  C  C276  1  0.037900  0.715400  0.110500  1.0  -0.0623
  C  C277  1  0.793300  0.774500  0.940500  1.0  0.6699
  C  C278  1  0.821700  0.766300  0.007000  1.0  -0.145
  C  C279  1  0.874400  0.762600  0.009700  1.0  -0.0762
  C  C280  1  0.901000  0.751400  0.070700  1.0  0.0308
  C  C281  1  0.795600  0.756400  0.071200  1.0  0.0192
  C  C282  1  0.311600  0.725400  0.093700  1.0  0.1456
  C  C283  1  0.371000  0.733900  0.101400  1.0  -0.0725
  C  C284  1  0.400500  0.778100  0.095300  1.0  -0.0716
  C  C285  1  0.450100  0.779100  0.122600  1.0  -0.0798
  C  C286  1  0.470200  0.735900  0.156100  1.0  -0.0115
  C  C287  1  0.440700  0.691700  0.162200  1.0  -0.1163
  C  C288  1  0.391100  0.690700  0.134800  1.0  -0.1164
  C  C289  1  0.884000  0.690700  0.435000  1.0  0.1392
  C  C290  1  0.933100  0.692700  0.463800  1.0  -0.1316
  C  C291  1  0.960300  0.738500  0.463400  1.0  0.0303
  C  C292  1  0.938400  0.782400  0.434200  1.0  -0.087
  C  C293  1  0.889200  0.780500  0.405400  1.0  0.1417
  C  C294  1  0.597410  0.683690  0.227000  1.0  0.145
  C  C295  1  0.548750  0.685840  0.196600  1.0  -0.1378
  C  C296  1  0.529200  0.732400  0.172700  1.0  -0.0082
  C  C297  1  0.558300  0.776800  0.179100  1.0  -0.1302
  C  C298  1  0.607000  0.774690  0.209500  1.0  0.1474
  C  C299  1  0.745800  0.634100  0.322600  1.0  0.7046
  C  C300  1  0.737600  0.306700  0.191500  1.0  0.7012
  C  C301  1  0.745500  0.331000  0.260900  1.0  -0.0342
  C  C302  1  0.755000  0.306400  0.320900  1.0  -0.0268
  C  C303  1  0.766400  0.333000  0.385900  1.0  -0.1337
  C  C304  1  0.763200  0.385300  0.384400  1.0  -0.0267
  C  C305  1  0.752000  0.412300  0.321600  1.0  0.0383
  C  C306  1  0.743100  0.384400  0.258200  1.0  -0.0255
  C  C307  1  0.772300  0.301000  0.453800  1.0  0.7259
  C  C308  1  0.749300  0.469700  0.322200  1.0  0.0966
  C  C309  1  0.784800  0.497000  0.363900  1.0  -0.1408
  C  C310  1  0.781500  0.549600  0.366700  1.0  -0.0698
  C  C311  1  0.746800  0.578100  0.322600  1.0  -0.1064
  C  C312  1  0.714600  0.549400  0.282300  1.0  -0.0684
  C  C313  1  0.717100  0.497500  0.281400  1.0  -0.1129
  C  C314  1  0.824300  0.257000  0.066200  1.0  0.5679
  C  C315  1  0.881600  0.261500  0.032800  1.0  -0.0447
  C  C316  1  0.911600  0.217600  0.039100  1.0  -0.0387
  C  C317  1  0.962800  0.218700  0.018400  1.0  -0.0935
  C  C318  1  0.984100  0.263700  0.991500  1.0  0.0408
  C  C319  1  0.954100  0.307500  0.985200  1.0  -0.1236
  C  C320  1  0.902900  0.306500  0.005800  1.0  -0.0569
  C  C321  1  0.206000  0.261700  0.702400  1.0  0.7264
  C  C322  1  0.180000  0.255400  0.634300  1.0  -0.1681
  C  C323  1  0.127100  0.256300  0.633200  1.0  -0.0448
  C  C324  1  0.879200  0.252900  0.570100  1.0  0.7048
  C  C325  1  0.933600  0.252900  0.569400  1.0  -0.06
  C  C326  1  0.958900  0.214800  0.528200  1.0  -0.0684
  C  C327  1  0.014300  0.216300  0.526700  1.0  -0.1223
  C  C328  1  0.041800  0.250200  0.569900  1.0  0.0732
  C  C329  1  0.014400  0.283300  0.613300  1.0  -0.1658
  C  C330  1  0.962100  0.284600  0.610500  1.0  -0.0611
  C  C331  1  0.206700  0.225500  0.440500  1.0  0.6696
  C  C332  1  0.178300  0.233700  0.507000  1.0  -0.1468
  C  C333  1  0.125600  0.237400  0.509700  1.0  -0.0764
  C  C334  1  0.099000  0.248600  0.570700  1.0  0.0304
  C  C335  1  0.204400  0.243600  0.571200  1.0  0.0192
  C  C336  1  0.688400  0.274600  0.593700  1.0  0.147
  C  C337  1  0.629000  0.266100  0.601400  1.0  -0.0724
  C  C338  1  0.599500  0.221900  0.595300  1.0  -0.0687
  C  C339  1  0.549900  0.220900  0.622600  1.0  -0.079
  C  C340  1  0.529800  0.264100  0.656100  1.0  -0.0117
  C  C341  1  0.559300  0.308300  0.662200  1.0  -0.118
  C  C342  1  0.608900  0.309300  0.634800  1.0  -0.1146
  C  C343  1  0.116000  0.309300  0.935000  1.0  0.141
  C  C344  1  0.066900  0.307300  0.963800  1.0  -0.1349
  C  C345  1  0.039700  0.261500  0.963400  1.0  0.0301
  C  C346  1  0.061600  0.217600  0.934200  1.0  -0.0871
  C  C347  1  0.110800  0.219500  0.905400  1.0  0.1438
  C  C348  1  0.402590  0.316310  0.727000  1.0  0.1442
  C  C349  1  0.451250  0.314160  0.696600  1.0  -0.1367
  C  C350  1  0.470800  0.267600  0.672700  1.0  -0.008
  C  C351  1  0.441700  0.223200  0.679100  1.0  -0.129
  C  C352  1  0.393000  0.225310  0.709500  1.0  0.1482
  N  N353  1  0.734600  0.138000  0.155800  1.0  -0.3149
  N  N354  1  0.728100  0.373470  0.983500  1.0  -0.3212
  N  N355  1  0.265400  0.862000  0.655800  1.0  -0.3161
  N  N356  1  0.271900  0.626530  0.483500  1.0  -0.3202
  N  N357  1  0.862000  0.734600  0.405800  1.0  -0.3131
  N  N358  1  0.626530  0.728100  0.233500  1.0  -0.3186
  N  N359  1  0.138000  0.265400  0.905800  1.0  -0.3145
  N  N360  1  0.373470  0.271900  0.733500  1.0  -0.3193
  O  O361  1  0.743390  0.772000  0.703700  1.0  -0.5321
  O  O362  1  0.736510  0.254900  0.950100  1.0  -0.5842
  O  O363  1  0.672240  0.782920  0.758400  1.0  -0.6
  O  O364  1  0.727140  0.181630  0.007700  1.0  -0.5665
  O  O365  1  0.783740  0.183460  0.635400  1.0  -0.5536
  O  O366  1  0.775100  0.258340  0.692600  1.0  -0.5884
  O  O367  1  0.778400  0.854470  0.782100  1.0  -0.5862
  O  O368  1  0.714500  0.853730  0.855700  1.0  -0.6115
  O  O369  1  0.742170  0.738970  0.442600  1.0  -0.6034
  O  O370  1  0.670310  0.727290  0.385200  1.0  -0.5843
  O  O371  1  0.782400  0.703300  0.802900  1.0  -0.7552
  O  O372  1  0.695300  0.708300  0.849400  1.0  -0.623
  O  O373  1  0.343710  0.709460  0.536300  1.0  -0.5771
  O  O374  1  0.341040  0.781990  0.609400  1.0  -0.5568
  O  O375  1  0.782300  0.806300  0.334400  1.0  -0.5368
  O  O376  1  0.702700  0.808000  0.292600  1.0  -0.583
  O  O377  1  0.256610  0.228000  0.203700  1.0  -0.5319
  O  O378  1  0.263490  0.745100  0.450100  1.0  -0.5831
  O  O379  1  0.327760  0.217080  0.258400  1.0  -0.6008
  O  O380  1  0.272860  0.818370  0.507700  1.0  -0.568
  O  O381  1  0.216260  0.816540  0.135400  1.0  -0.5533
  O  O382  1  0.224900  0.741660  0.192600  1.0  -0.5893
  O  O383  1  0.221600  0.145530  0.282100  1.0  -0.585
  O  O384  1  0.285500  0.146270  0.355700  1.0  -0.6128
  O  O385  1  0.257830  0.261030  0.942600  1.0  -0.6033
  O  O386  1  0.329690  0.272710  0.885200  1.0  -0.5849
  O  O387  1  0.217600  0.296700  0.302900  1.0  -0.7549
  O  O388  1  0.304700  0.291700  0.349400  1.0  -0.6229
  O  O389  1  0.656290  0.290540  0.036300  1.0  -0.5764
  O  O390  1  0.658960  0.218010  0.109400  1.0  -0.5573
  O  O391  1  0.217700  0.193700  0.834400  1.0  -0.5374
  O  O392  1  0.297300  0.192000  0.792600  1.0  -0.5823
  O  O393  1  0.228000  0.743390  0.953700  1.0  -0.529
  O  O394  1  0.745100  0.736510  0.200100  1.0  -0.5825
  O  O395  1  0.217080  0.672240  0.008400  1.0  -0.6011
  O  O396  1  0.818370  0.727140  0.257700  1.0  -0.5658
  O  O397  1  0.816540  0.783740  0.885400  1.0  -0.5525
  O  O398  1  0.741660  0.775100  0.942600  1.0  -0.5889
  O  O399  1  0.145530  0.778400  0.032100  1.0  -0.5884
  O  O400  1  0.146270  0.714500  0.105700  1.0  -0.6146
  O  O401  1  0.261030  0.742170  0.692600  1.0  -0.6044
  O  O402  1  0.272710  0.670310  0.635200  1.0  -0.5861
  O  O403  1  0.296700  0.782400  0.052900  1.0  -0.7575
  O  O404  1  0.291700  0.695300  0.099400  1.0  -0.6222
  O  O405  1  0.290540  0.343710  0.786300  1.0  -0.5746
  O  O406  1  0.218010  0.341040  0.859400  1.0  -0.5553
  O  O407  1  0.193700  0.782300  0.584400  1.0  -0.538
  O  O408  1  0.192000  0.702700  0.542600  1.0  -0.5849
  O  O409  1  0.772000  0.256610  0.453700  1.0  -0.5278
  O  O410  1  0.254900  0.263490  0.700100  1.0  -0.5827
  O  O411  1  0.782920  0.327760  0.508400  1.0  -0.6014
  O  O412  1  0.181630  0.272860  0.757700  1.0  -0.5654
  O  O413  1  0.183460  0.216260  0.385400  1.0  -0.5522
  O  O414  1  0.258340  0.224900  0.442600  1.0  -0.5879
  O  O415  1  0.854470  0.221600  0.532100  1.0  -0.5877
  O  O416  1  0.853730  0.285500  0.605700  1.0  -0.6135
  O  O417  1  0.738970  0.257830  0.192600  1.0  -0.6031
  O  O418  1  0.727290  0.329690  0.135200  1.0  -0.5857
  O  O419  1  0.703300  0.217600  0.552900  1.0  -0.7555
  O  O420  1  0.708300  0.304700  0.599400  1.0  -0.6226
  O  O421  1  0.709460  0.656290  0.286300  1.0  -0.5743
  O  O422  1  0.781990  0.658960  0.359400  1.0  -0.5559
  O  O423  1  0.806300  0.217700  0.084400  1.0  -0.5366
  O  O424  1  0.808000  0.297300  0.042600  1.0  -0.5858
