# generated using pymatgen
data_Ce2H11C20(NO6)3
_symmetry_space_group_name_H-M   'P 1'
_cell_length_a   11.79920000
_cell_length_b   11.86060000
_cell_length_c   13.63010000
_cell_angle_alpha   95.26300000
_cell_angle_beta   108.54700000
_cell_angle_gamma   108.08100000
_symmetry_Int_Tables_number   1
_chemical_formula_structural   Ce2H11C20(NO6)3
_chemical_formula_sum   'Ce4 H22 C40 N6 O36'
_cell_volume   1680.28154925
_cell_formula_units_Z   2
loop_
 _symmetry_equiv_pos_site_id
 _symmetry_equiv_pos_as_xyz
  1  'x, y, z'
loop_
 _atom_site_type_symbol
 _atom_site_label
 _atom_site_symmetry_multiplicity
 _atom_site_fract_x
 _atom_site_fract_y
 _atom_site_fract_z
 _atom_site_occupancy
 _atom_site_charge
  Ce  Ce1  1  0.001390  0.997800  0.749800  1.0  2.1419
  Ce  Ce2  1  0.372530  0.358640  0.612350  1.0  1.9477
  Ce  Ce3  1  0.998610  0.002200  0.250200  1.0  2.1418
  Ce  Ce4  1  0.627470  0.641360  0.387650  1.0  1.9489
  H  H5  1  0.619200  0.195200  0.693700  1.0  0.1174
  H  H6  1  0.469000  0.833100  0.584000  1.0  0.1193
  H  H7  1  0.533700  0.169900  0.863700  1.0  0.123
  H  H8  1  0.396600  0.815600  0.869700  1.0  0.1226
  H  H9  1  0.232100  0.925400  0.512100  1.0  0.4113
  H  H10  1  0.705700  0.897500  0.954100  1.0  0.3937
  H  H11  1  0.130900  0.503300  0.399500  1.0  0.1273
  H  H12  1  0.168300  0.388600  0.384300  1.0  0.1044
  H  H13  1  0.443300  0.608000  0.533300  1.0  0.4028
  H  H14  1  0.159000  0.419000  0.223000  1.0  0.309
  H  H15  1  0.127000  0.517000  0.232000  1.0  0.3037
  H  H16  1  0.380800  0.804800  0.306300  1.0  0.1184
  H  H17  1  0.531000  0.166900  0.416000  1.0  0.1188
  H  H18  1  0.466300  0.830100  0.136300  1.0  0.1238
  H  H19  1  0.603400  0.184400  0.130300  1.0  0.1221
  H  H20  1  0.767900  0.074600  0.487900  1.0  0.4119
  H  H21  1  0.294300  0.102500  0.045900  1.0  0.3963
  H  H22  1  0.869100  0.496700  0.600500  1.0  0.127
  H  H23  1  0.831700  0.611400  0.615700  1.0  0.1046
  H  H24  1  0.556700  0.392000  0.466700  1.0  0.4032
  H  H25  1  0.841000  0.581000  0.777000  1.0  0.3107
  H  H26  1  0.873000  0.483000  0.768000  1.0  0.3045
  C  C27  1  0.748100  0.110500  0.715230  1.0  0.1401
  C  C28  1  0.628100  0.120400  0.682310  1.0  -0.0414
  C  C29  1  0.522200  0.015200  0.631840  1.0  -0.143
  C  C30  1  0.539100  0.905100  0.615140  1.0  -0.046
  C  C31  1  0.663000  0.905000  0.646000  1.0  0.1202
  C  C32  1  0.869600  0.217100  0.777210  1.0  0.6185
  C  C33  1  0.391200  0.023400  0.592100  1.0  0.6859
  C  C34  1  0.695300  0.794600  0.620850  1.0  0.6673
  C  C35  1  0.341000  0.096000  0.821790  1.0  0.1147
  C  C36  1  0.466000  0.098800  0.854720  1.0  -0.0771
  C  C37  1  0.487600  0.993000  0.873900  1.0  -0.1195
  C  C38  1  0.384700  0.888200  0.859290  1.0  -0.0556
  C  C39  1  0.263000  0.894900  0.828600  1.0  0.1304
  C  C40  1  0.304000  0.202200  0.791930  1.0  0.6704
  C  C41  1  0.623800  0.997300  0.913920  1.0  0.6153
  C  C42  1  0.143700  0.789000  0.813630  1.0  0.6457
  C  C43  1  0.069200  0.046200  0.023860  1.0  0.5879
  C  C44  1  0.041700  0.960400  0.508530  1.0  0.568
  C  C45  1  0.316100  0.547200  0.409100  1.0  0.7222
  C  C46  1  0.177200  0.467600  0.366800  1.0  -0.1562
  C  C47  1  0.251900  0.889500  0.284770  1.0  0.1403
  C  C48  1  0.371900  0.879600  0.317690  1.0  -0.0404
  C  C49  1  0.477800  0.984800  0.368160  1.0  -0.1427
  C  C50  1  0.460900  0.094900  0.384860  1.0  -0.0508
  C  C51  1  0.337000  0.095000  0.354000  1.0  0.1187
  C  C52  1  0.130400  0.782900  0.222790  1.0  0.6177
  C  C53  1  0.608800  0.976600  0.407900  1.0  0.6846
  C  C54  1  0.304700  0.205400  0.379150  1.0  0.6689
  C  C55  1  0.659000  0.904000  0.178210  1.0  0.1143
  C  C56  1  0.534000  0.901200  0.145280  1.0  -0.0796
  C  C57  1  0.512400  0.007000  0.126100  1.0  -0.1197
  C  C58  1  0.615300  0.111800  0.140710  1.0  -0.0558
  C  C59  1  0.737000  0.105100  0.171400  1.0  0.1311
  C  C60  1  0.696000  0.797800  0.208070  1.0  0.671
  C  C61  1  0.376200  0.002700  0.086080  1.0  0.6155
  C  C62  1  0.856300  0.211000  0.186370  1.0  0.6465
  C  C63  1  0.930800  0.953800  0.976140  1.0  0.5874
  C  C64  1  0.958300  0.039600  0.491470  1.0  0.563
  C  C65  1  0.683900  0.452800  0.590900  1.0  0.7225
  C  C66  1  0.822800  0.532400  0.633200  1.0  -0.155
  N  N67  1  0.765290  0.006100  0.695590  1.0  -0.3906
  N  N68  1  0.242060  0.996630  0.810870  1.0  -0.3983
  N  N69  1  0.122400  0.453300  0.251300  1.0  -0.5138
  N  N70  1  0.234710  0.993900  0.304410  1.0  -0.39
  N  N71  1  0.757940  0.003370  0.189130  1.0  -0.3994
  N  N72  1  0.877600  0.546700  0.748700  1.0  -0.5152
  O  O73  1  0.971460  0.194050  0.806400  1.0  -0.677
  O  O74  1  0.862060  0.317740  0.798520  1.0  -0.5479
  O  O75  1  0.302300  0.918200  0.532500  1.0  -0.501
  O  O76  1  0.373230  0.117450  0.599870  1.0  -0.6187
  O  O77  1  0.607040  0.693790  0.580550  1.0  -0.7291
  O  O78  1  0.811290  0.812770  0.639490  1.0  -0.6549
  O  O79  1  0.186450  0.185150  0.759720  1.0  -0.67
  O  O80  1  0.389380  0.299290  0.797950  1.0  -0.6921
  O  O81  1  0.630570  0.892010  0.932430  1.0  -0.5237
  O  O82  1  0.713940  0.088560  0.929920  1.0  -0.473
  O  O83  1  0.153110  0.687620  0.821090  1.0  -0.4899
  O  O84  1  0.042160  0.809950  0.794420  1.0  -0.6479
  O  O85  1  0.124150  0.077170  0.959970  1.0  -0.6347
  O  O86  1  0.116020  0.082310  0.122160  1.0  -0.6456
  O  O87  1  0.069590  0.929080  0.595190  1.0  -0.6177
  O  O88  1  0.076100  0.935070  0.433810  1.0  -0.639
  O  O89  1  0.367590  0.564170  0.512820  1.0  -0.6196
  O  O90  1  0.372020  0.588970  0.353700  1.0  -0.5886
  O  O91  1  0.028540  0.805950  0.193600  1.0  -0.6667
  O  O92  1  0.137940  0.682260  0.201480  1.0  -0.5498
  O  O93  1  0.697700  0.081800  0.467500  1.0  -0.5015
  O  O94  1  0.626770  0.882550  0.400130  1.0  -0.6208
  O  O95  1  0.392960  0.306210  0.419450  1.0  -0.7301
  O  O96  1  0.188710  0.187230  0.360510  1.0  -0.655
  O  O97  1  0.813550  0.814850  0.240280  1.0  -0.6677
  O  O98  1  0.610620  0.700710  0.202050  1.0  -0.6911
  O  O99  1  0.369430  0.107990  0.067570  1.0  -0.5246
  O  O100  1  0.286060  0.911440  0.070080  1.0  -0.4761
  O  O101  1  0.846890  0.312380  0.178910  1.0  -0.4894
  O  O102  1  0.957840  0.190050  0.205580  1.0  -0.6493
  O  O103  1  0.875850  0.922830  0.040030  1.0  -0.6338
  O  O104  1  0.883980  0.917690  0.877840  1.0  -0.6445
  O  O105  1  0.930410  0.070920  0.404810  1.0  -0.6175
  O  O106  1  0.923900  0.064930  0.566190  1.0  -0.6392
  O  O107  1  0.632410  0.435830  0.487180  1.0  -0.6152
  O  O108  1  0.627980  0.411030  0.646300  1.0  -0.5914
