# generated using pymatgen
data_KCe4BH12W12C28(N2O25)2
_symmetry_space_group_name_H-M   'P 1'
_cell_length_a   30.68500000
_cell_length_b   15.58350000
_cell_length_c   22.05290000
_cell_angle_alpha   90.00000000
_cell_angle_beta   132.98400000
_cell_angle_gamma   90.00000000
_symmetry_Int_Tables_number   1
_chemical_formula_structural   KCe4BH12W12C28(N2O25)2
_chemical_formula_sum   'K4 Ce16 B4 H48 W48 C112 N16 O200'
_cell_volume   7714.31496852
_cell_formula_units_Z   4
loop_
 _symmetry_equiv_pos_site_id
 _symmetry_equiv_pos_as_xyz
  1  'x, y, z'
loop_
 _atom_site_type_symbol
 _atom_site_label
 _atom_site_symmetry_multiplicity
 _atom_site_fract_x
 _atom_site_fract_y
 _atom_site_fract_z
 _atom_site_occupancy
 _atom_site_charge
  K  K1  1  0.000000  0.636100  0.250000  1.0  0.8994
  K  K2  1  0.500000  0.136100  0.250000  1.0  0.8994
  K  K3  1  0.000000  0.363900  0.750000  1.0  0.8995
  K  K4  1  0.500000  0.863900  0.750000  1.0  0.8995
  Ce  Ce5  1  0.889720  0.642270  0.328510  1.0  2.1434
  Ce  Ce6  1  0.830920  0.626930  0.986380  1.0  2.1076
  Ce  Ce7  1  0.389720  0.142270  0.328510  1.0  2.1434
  Ce  Ce8  1  0.330920  0.126930  0.986380  1.0  2.1076
  Ce  Ce9  1  0.110280  0.642270  0.171490  1.0  2.1454
  Ce  Ce10  1  0.169080  0.626930  0.513620  1.0  2.1065
  Ce  Ce11  1  0.610280  0.142270  0.171490  1.0  2.1454
  Ce  Ce12  1  0.669080  0.126930  0.513620  1.0  2.1065
  Ce  Ce13  1  0.110280  0.357730  0.671490  1.0  2.1482
  Ce  Ce14  1  0.169080  0.373070  0.013620  1.0  2.1036
  Ce  Ce15  1  0.610280  0.857730  0.671490  1.0  2.1482
  Ce  Ce16  1  0.669080  0.873070  0.013620  1.0  2.1036
  Ce  Ce17  1  0.889720  0.357730  0.828510  1.0  2.1478
  Ce  Ce18  1  0.830920  0.373070  0.486380  1.0  2.1039
  Ce  Ce19  1  0.389720  0.857730  0.828510  1.0  2.1478
  Ce  Ce20  1  0.330920  0.873070  0.486380  1.0  2.1039
  B  B21  1  0.000000  0.136000  0.250000  1.0  0.45
  B  B22  1  0.500000  0.636000  0.250000  1.0  0.45
  B  B23  1  0.000000  0.864000  0.750000  1.0  0.4499
  B  B24  1  0.500000  0.364000  0.750000  1.0  0.4499
  H  H25  1  0.737200  0.336300  0.097300  1.0  0.0988
  H  H26  1  0.781700  0.418900  0.068400  1.0  0.1431
  H  H27  1  0.015500  0.864900  0.465800  1.0  0.1193
  H  H28  1  0.755600  0.354000  0.215600  1.0  0.1388
  H  H29  1  0.084900  0.963100  0.566700  1.0  0.1041
  H  H30  1  0.185300  0.938400  0.648100  1.0  0.1326
  H  H31  1  0.237200  0.836300  0.097300  1.0  0.0988
  H  H32  1  0.281700  0.918900  0.068400  1.0  0.1431
  H  H33  1  0.515500  0.364900  0.465800  1.0  0.1193
  H  H34  1  0.255600  0.854000  0.215600  1.0  0.1388
  H  H35  1  0.584900  0.463100  0.566700  1.0  0.1041
  H  H36  1  0.685300  0.438400  0.648100  1.0  0.1326
  H  H37  1  0.262800  0.336300  0.402700  1.0  0.099
  H  H38  1  0.218300  0.418900  0.431600  1.0  0.143
  H  H39  1  0.984500  0.864900  0.034200  1.0  0.1182
  H  H40  1  0.244400  0.354000  0.284400  1.0  0.1385
  H  H41  1  0.915100  0.963100  0.933300  1.0  0.1038
  H  H42  1  0.814700  0.938400  0.851900  1.0  0.1326
  H  H43  1  0.762800  0.836300  0.402700  1.0  0.099
  H  H44  1  0.718300  0.918900  0.431600  1.0  0.143
  H  H45  1  0.484500  0.364900  0.034200  1.0  0.1182
  H  H46  1  0.744400  0.854000  0.284400  1.0  0.1385
  H  H47  1  0.415100  0.463100  0.933300  1.0  0.1038
  H  H48  1  0.314700  0.438400  0.851900  1.0  0.1326
  H  H49  1  0.262800  0.663700  0.902700  1.0  0.0987
  H  H50  1  0.218300  0.581100  0.931600  1.0  0.1429
  H  H51  1  0.984500  0.135100  0.534200  1.0  0.118
  H  H52  1  0.244400  0.646000  0.784400  1.0  0.139
  H  H53  1  0.915100  0.036900  0.433300  1.0  0.1045
  H  H54  1  0.814700  0.061600  0.351900  1.0  0.1325
  H  H55  1  0.762800  0.163700  0.902700  1.0  0.0987
  H  H56  1  0.718300  0.081100  0.931600  1.0  0.1429
  H  H57  1  0.484500  0.635100  0.534200  1.0  0.118
  H  H58  1  0.744400  0.146000  0.784400  1.0  0.139
  H  H59  1  0.415100  0.536900  0.433300  1.0  0.1045
  H  H60  1  0.314700  0.561600  0.351900  1.0  0.1325
  H  H61  1  0.737200  0.663700  0.597300  1.0  0.0988
  H  H62  1  0.781700  0.581100  0.568400  1.0  0.1431
  H  H63  1  0.015500  0.135100  0.965800  1.0  0.1194
  H  H64  1  0.755600  0.646000  0.715600  1.0  0.139
  H  H65  1  0.084900  0.036900  0.066700  1.0  0.1047
  H  H66  1  0.185300  0.061600  0.148100  1.0  0.133
  H  H67  1  0.237200  0.163700  0.597300  1.0  0.0988
  H  H68  1  0.281700  0.081100  0.568400  1.0  0.1431
  H  H69  1  0.515500  0.635100  0.965800  1.0  0.1194
  H  H70  1  0.255600  0.146000  0.715600  1.0  0.139
  H  H71  1  0.584900  0.536900  0.066700  1.0  0.1047
  H  H72  1  0.685300  0.561600  0.148100  1.0  0.133
  W  W73  1  0.053030  0.135530  0.449420  1.0  1.3929
  W  W74  1  0.924190  0.023750  0.290150  1.0  1.3421
  W  W75  1  0.128070  0.023840  0.409010  1.0  1.2846
  W  W76  1  0.923420  0.247290  0.290390  1.0  1.4559
  W  W77  1  0.130240  0.246940  0.408730  1.0  1.3997
  W  W78  1  0.553030  0.635530  0.449420  1.0  1.3929
  W  W79  1  0.424190  0.523750  0.290150  1.0  1.3421
  W  W80  1  0.628070  0.523840  0.409010  1.0  1.2846
  W  W81  1  0.423420  0.747290  0.290390  1.0  1.4559
  W  W82  1  0.630240  0.746940  0.408730  1.0  1.3997
  W  W83  1  0.946970  0.135530  0.050580  1.0  1.3996
  W  W84  1  0.075810  0.023750  0.209850  1.0  1.3435
  W  W85  1  0.871930  0.023840  0.090990  1.0  1.2826
  W  W86  1  0.076580  0.247290  0.209610  1.0  1.4576
  W  W87  1  0.869760  0.246940  0.091270  1.0  1.4005
  W  W88  1  0.446970  0.635530  0.050580  1.0  1.3996
  W  W89  1  0.575810  0.523750  0.209850  1.0  1.3435
  W  W90  1  0.371930  0.523840  0.090990  1.0  1.2826
  W  W91  1  0.576580  0.747290  0.209610  1.0  1.4576
  W  W92  1  0.369760  0.746940  0.091270  1.0  1.4005
  W  W93  1  0.946970  0.864470  0.550580  1.0  1.3996
  W  W94  1  0.075810  0.976250  0.709850  1.0  1.3502
  W  W95  1  0.871930  0.976160  0.590990  1.0  1.2833
  W  W96  1  0.076580  0.752710  0.709610  1.0  1.4539
  W  W97  1  0.869760  0.753060  0.591270  1.0  1.3977
  W  W98  1  0.446970  0.364470  0.550580  1.0  1.3996
  W  W99  1  0.575810  0.476250  0.709850  1.0  1.3502
  W  W100  1  0.371930  0.476160  0.590990  1.0  1.2833
  W  W101  1  0.576580  0.252710  0.709610  1.0  1.4539
  W  W102  1  0.369760  0.253060  0.591270  1.0  1.3977
  W  W103  1  0.053030  0.864470  0.949420  1.0  1.3927
  W  W104  1  0.924190  0.976250  0.790150  1.0  1.3452
  W  W105  1  0.128070  0.976160  0.909010  1.0  1.2878
  W  W106  1  0.923420  0.752710  0.790390  1.0  1.4543
  W  W107  1  0.130240  0.753060  0.908730  1.0  1.3946
  W  W108  1  0.553030  0.364470  0.949420  1.0  1.3927
  W  W109  1  0.424190  0.476250  0.790150  1.0  1.3452
  W  W110  1  0.628070  0.476160  0.909010  1.0  1.2878
  W  W111  1  0.423420  0.252710  0.790390  1.0  1.4543
  W  W112  1  0.630240  0.253060  0.908730  1.0  1.3946
  W  W113  1  0.000000  0.910750  0.250000  1.0  2.0418
  W  W114  1  0.000000  0.358100  0.250000  1.0  1.8425
  W  W115  1  0.500000  0.410750  0.250000  1.0  2.0418
  W  W116  1  0.500000  0.858100  0.250000  1.0  1.8425
  W  W117  1  0.000000  0.089250  0.750000  1.0  2.048
  W  W118  1  0.000000  0.641900  0.750000  1.0  1.8386
  W  W119  1  0.500000  0.589250  0.750000  1.0  2.048
  W  W120  1  0.500000  0.141900  0.750000  1.0  1.8386
  C  C121  1  0.174000  0.823700  0.597700  1.0  0.0815
  C  C122  1  0.764100  0.378200  0.135100  1.0  -0.0969
  C  C123  1  0.032000  0.711000  0.423100  1.0  0.6576
  C  C124  1  0.829800  0.492000  0.176000  1.0  0.1352
  C  C125  1  0.789600  0.426800  0.116900  1.0  -0.1489
  C  C126  1  0.074500  0.783100  0.487300  1.0  0.1175
  C  C127  1  0.238500  0.798200  0.646400  1.0  0.7012
  C  C128  1  0.838000  0.462800  0.346800  1.0  0.6784
  C  C129  1  0.858800  0.556000  0.163200  1.0  0.6772
  C  C130  1  0.055900  0.854800  0.498600  1.0  -0.0732
  C  C131  1  0.775500  0.386700  0.205600  1.0  -0.1435
  C  C132  1  0.097600  0.913400  0.559400  1.0  -0.0886
  C  C133  1  0.819200  0.448000  0.264000  1.0  0.0704
  C  C134  1  0.157100  0.898600  0.608500  1.0  -0.0421
  C  C135  1  0.674000  0.323700  0.597700  1.0  0.0815
  C  C136  1  0.264100  0.878200  0.135100  1.0  -0.0969
  C  C137  1  0.532000  0.211000  0.423100  1.0  0.6576
  C  C138  1  0.329800  0.992000  0.176000  1.0  0.1352
  C  C139  1  0.289600  0.926800  0.116900  1.0  -0.1489
  C  C140  1  0.574500  0.283100  0.487300  1.0  0.1175
  C  C141  1  0.738500  0.298200  0.646400  1.0  0.7012
  C  C142  1  0.338000  0.962800  0.346800  1.0  0.6784
  C  C143  1  0.358800  0.056000  0.163200  1.0  0.6772
  C  C144  1  0.555900  0.354800  0.498600  1.0  -0.0732
  C  C145  1  0.275500  0.886700  0.205600  1.0  -0.1435
  C  C146  1  0.597600  0.413400  0.559400  1.0  -0.0886
  C  C147  1  0.319200  0.948000  0.264000  1.0  0.0704
  C  C148  1  0.657100  0.398600  0.608500  1.0  -0.0421
  C  C149  1  0.826000  0.823700  0.902300  1.0  0.0804
  C  C150  1  0.235900  0.378200  0.364900  1.0  -0.0967
  C  C151  1  0.968000  0.711000  0.076900  1.0  0.6591
  C  C152  1  0.170200  0.492000  0.324000  1.0  0.1371
  C  C153  1  0.210400  0.426800  0.383100  1.0  -0.1467
  C  C154  1  0.925500  0.783100  0.012700  1.0  0.1194
  C  C155  1  0.761500  0.798200  0.853600  1.0  0.6995
  C  C156  1  0.162000  0.462800  0.153200  1.0  0.6783
  C  C157  1  0.141200  0.556000  0.336800  1.0  0.6769
  C  C158  1  0.944100  0.854800  0.001400  1.0  -0.0729
  C  C159  1  0.224500  0.386700  0.294400  1.0  -0.1444
  C  C160  1  0.902400  0.913400  0.940600  1.0  -0.0875
  C  C161  1  0.180800  0.448000  0.236000  1.0  0.0722
  C  C162  1  0.842900  0.898600  0.891500  1.0  -0.0424
  C  C163  1  0.326000  0.323700  0.902300  1.0  0.0804
  C  C164  1  0.735900  0.878200  0.364900  1.0  -0.0967
  C  C165  1  0.468000  0.211000  0.076900  1.0  0.6591
  C  C166  1  0.670200  0.992000  0.324000  1.0  0.1371
  C  C167  1  0.710400  0.926800  0.383100  1.0  -0.1467
  C  C168  1  0.425500  0.283100  0.012700  1.0  0.1194
  C  C169  1  0.261500  0.298200  0.853600  1.0  0.6995
  C  C170  1  0.662000  0.962800  0.153200  1.0  0.6783
  C  C171  1  0.641200  0.056000  0.336800  1.0  0.6769
  C  C172  1  0.444100  0.354800  0.001400  1.0  -0.0729
  C  C173  1  0.724500  0.886700  0.294400  1.0  -0.1444
  C  C174  1  0.402400  0.413400  0.940600  1.0  -0.0875
  C  C175  1  0.680800  0.948000  0.236000  1.0  0.0722
  C  C176  1  0.342900  0.398600  0.891500  1.0  -0.0424
  C  C177  1  0.826000  0.176300  0.402300  1.0  0.0803
  C  C178  1  0.235900  0.621800  0.864900  1.0  -0.0968
  C  C179  1  0.968000  0.289000  0.576900  1.0  0.6597
  C  C180  1  0.170200  0.508000  0.824000  1.0  0.1372
  C  C181  1  0.210400  0.573200  0.883100  1.0  -0.1467
  C  C182  1  0.925500  0.216900  0.512700  1.0  0.1189
  C  C183  1  0.761500  0.201800  0.353600  1.0  0.7
  C  C184  1  0.162000  0.537200  0.653200  1.0  0.678
  C  C185  1  0.141200  0.444000  0.836800  1.0  0.6788
  C  C186  1  0.944100  0.145200  0.501400  1.0  -0.0728
  C  C187  1  0.224500  0.613300  0.794400  1.0  -0.1451
  C  C188  1  0.902400  0.086600  0.440600  1.0  -0.0879
  C  C189  1  0.180800  0.552000  0.736000  1.0  0.072
  C  C190  1  0.842900  0.101400  0.391500  1.0  -0.0427
  C  C191  1  0.326000  0.676300  0.402300  1.0  0.0803
  C  C192  1  0.735900  0.121800  0.864900  1.0  -0.0968
  C  C193  1  0.468000  0.789000  0.576900  1.0  0.6597
  C  C194  1  0.670200  0.008000  0.824000  1.0  0.1372
  C  C195  1  0.710400  0.073200  0.883100  1.0  -0.1467
  C  C196  1  0.425500  0.716900  0.512700  1.0  0.1189
  C  C197  1  0.261500  0.701800  0.353600  1.0  0.7
  C  C198  1  0.662000  0.037200  0.653200  1.0  0.678
  C  C199  1  0.641200  0.944000  0.836800  1.0  0.6788
  C  C200  1  0.444100  0.645200  0.501400  1.0  -0.0728
  C  C201  1  0.724500  0.113300  0.794400  1.0  -0.1451
  C  C202  1  0.402400  0.586600  0.440600  1.0  -0.0879
  C  C203  1  0.680800  0.052000  0.736000  1.0  0.072
  C  C204  1  0.342900  0.601400  0.391500  1.0  -0.0427
  C  C205  1  0.174000  0.176300  0.097700  1.0  0.0814
  C  C206  1  0.764100  0.621800  0.635100  1.0  -0.0976
  C  C207  1  0.032000  0.289000  0.923100  1.0  0.6581
  C  C208  1  0.829800  0.508000  0.676000  1.0  0.1351
  C  C209  1  0.789600  0.573200  0.616900  1.0  -0.149
  C  C210  1  0.074500  0.216900  0.987300  1.0  0.1182
  C  C211  1  0.238500  0.201800  0.146400  1.0  0.7016
  C  C212  1  0.838000  0.537200  0.846800  1.0  0.6784
  C  C213  1  0.858800  0.444000  0.663200  1.0  0.6754
  C  C214  1  0.055900  0.145200  0.998600  1.0  -0.0732
  C  C215  1  0.775500  0.613300  0.705600  1.0  -0.1457
  C  C216  1  0.097600  0.086600  0.059400  1.0  -0.0888
  C  C217  1  0.819200  0.552000  0.764000  1.0  0.0704
  C  C218  1  0.157100  0.101400  0.108500  1.0  -0.0417
  C  C219  1  0.674000  0.676300  0.097700  1.0  0.0814
  C  C220  1  0.264100  0.121800  0.635100  1.0  -0.0976
  C  C221  1  0.532000  0.789000  0.923100  1.0  0.6581
  C  C222  1  0.329800  0.008000  0.676000  1.0  0.1351
  C  C223  1  0.289600  0.073200  0.616900  1.0  -0.149
  C  C224  1  0.574500  0.716900  0.987300  1.0  0.1182
  C  C225  1  0.738500  0.701800  0.146400  1.0  0.7016
  C  C226  1  0.338000  0.037200  0.846800  1.0  0.6784
  C  C227  1  0.358800  0.944000  0.663200  1.0  0.6754
  C  C228  1  0.555900  0.645200  0.998600  1.0  -0.0732
  C  C229  1  0.275500  0.113300  0.705600  1.0  -0.1457
  C  C230  1  0.597600  0.586600  0.059400  1.0  -0.0888
  C  C231  1  0.319200  0.052000  0.764000  1.0  0.0704
  C  C232  1  0.657100  0.601400  0.108500  1.0  -0.0417
  N  N233  1  0.842000  0.503200  0.245300  1.0  -0.4014
  N  N234  1  0.132300  0.766600  0.534300  1.0  -0.4389
  N  N235  1  0.342000  0.003200  0.245300  1.0  -0.4014
  N  N236  1  0.632300  0.266600  0.534300  1.0  -0.4389
  N  N237  1  0.158000  0.503200  0.254700  1.0  -0.3997
  N  N238  1  0.867700  0.766600  0.965700  1.0  -0.4403
  N  N239  1  0.658000  0.003200  0.254700  1.0  -0.3997
  N  N240  1  0.367700  0.266600  0.965700  1.0  -0.4403
  N  N241  1  0.158000  0.496800  0.754700  1.0  -0.4006
  N  N242  1  0.867700  0.233400  0.465700  1.0  -0.4399
  N  N243  1  0.658000  0.996800  0.754700  1.0  -0.4006
  N  N244  1  0.367700  0.733400  0.465700  1.0  -0.4399
  N  N245  1  0.842000  0.496800  0.745300  1.0  -0.3993
  N  N246  1  0.132300  0.233400  0.034300  1.0  -0.438
  N  N247  1  0.342000  0.996800  0.745300  1.0  -0.3993
  N  N248  1  0.632300  0.733400  0.034300  1.0  -0.438
  O  O249  1  0.277800  0.844900  0.704700  1.0  -0.6801
  O  O250  1  0.245500  0.733100  0.624500  1.0  -0.6032
  O  O251  1  0.979300  0.720600  0.381900  1.0  -0.6747
  O  O252  1  0.057400  0.649400  0.421800  1.0  -0.7049
  O  O253  1  0.850800  0.547600  0.101000  1.0  -0.658
  O  O254  1  0.888500  0.615500  0.216200  1.0  -0.7196
  O  O255  1  0.824300  0.405800  0.371900  1.0  -0.7043
  O  O256  1  0.865600  0.531700  0.383200  1.0  -0.6993
  O  O257  1  0.134100  0.256000  0.326100  1.0  -0.6984
  O  O258  1  0.102800  0.054400  0.462800  1.0  -0.7343
  O  O259  1  0.160100  0.138600  0.431100  1.0  -0.7237
  O  O260  1  0.994700  0.051600  0.401000  1.0  -0.6977
  O  O261  1  0.968000  0.934900  0.295400  1.0  -0.7523
  O  O262  1  0.102600  0.216400  0.460000  1.0  -0.758
  O  O263  1  0.995900  0.223200  0.399400  1.0  -0.6949
  O  O264  1  0.895300  0.141700  0.280600  1.0  -0.6889
  O  O265  1  0.963700  0.066000  0.229000  1.0  -0.451
  O  O266  1  0.950600  0.136000  0.166800  1.0  -0.3492
  O  O267  1  0.985900  0.141000  0.298000  1.0  -0.3131
  O  O268  1  0.131400  0.015000  0.326000  1.0  -0.6773
  O  O269  1  0.034000  0.338000  0.206300  1.0  -0.7172
  O  O270  1  0.077000  0.341000  0.358500  1.0  -0.7028
  O  O271  1  0.073800  0.928000  0.354700  1.0  -0.7247
  O  O272  1  0.036100  0.205000  0.269000  1.0  -0.3013
  O  O273  1  0.777800  0.344900  0.704700  1.0  -0.6801
  O  O274  1  0.745500  0.233100  0.624500  1.0  -0.6032
  O  O275  1  0.479300  0.220600  0.381900  1.0  -0.6747
  O  O276  1  0.557400  0.149400  0.421800  1.0  -0.7049
  O  O277  1  0.350800  0.047600  0.101000  1.0  -0.658
  O  O278  1  0.388500  0.115500  0.216200  1.0  -0.7196
  O  O279  1  0.324300  0.905800  0.371900  1.0  -0.7043
  O  O280  1  0.365600  0.031700  0.383200  1.0  -0.6993
  O  O281  1  0.634100  0.756000  0.326100  1.0  -0.6984
  O  O282  1  0.602800  0.554400  0.462800  1.0  -0.7343
  O  O283  1  0.660100  0.638600  0.431100  1.0  -0.7237
  O  O284  1  0.494700  0.551600  0.401000  1.0  -0.6977
  O  O285  1  0.468000  0.434900  0.295400  1.0  -0.7523
  O  O286  1  0.602600  0.716400  0.460000  1.0  -0.758
  O  O287  1  0.495900  0.723200  0.399400  1.0  -0.6949
  O  O288  1  0.395300  0.641700  0.280600  1.0  -0.6889
  O  O289  1  0.463700  0.566000  0.229000  1.0  -0.451
  O  O290  1  0.450600  0.636000  0.166800  1.0  -0.3492
  O  O291  1  0.485900  0.641000  0.298000  1.0  -0.3131
  O  O292  1  0.631400  0.515000  0.326000  1.0  -0.6773
  O  O293  1  0.534000  0.838000  0.206300  1.0  -0.7172
  O  O294  1  0.577000  0.841000  0.358500  1.0  -0.7028
  O  O295  1  0.573800  0.428000  0.354700  1.0  -0.7247
  O  O296  1  0.536100  0.705000  0.269000  1.0  -0.3013
  O  O297  1  0.722200  0.844900  0.795300  1.0  -0.6787
  O  O298  1  0.754500  0.733100  0.875500  1.0  -0.6034
  O  O299  1  0.020700  0.720600  0.118100  1.0  -0.6727
  O  O300  1  0.942600  0.649400  0.078200  1.0  -0.7037
  O  O301  1  0.149200  0.547600  0.399000  1.0  -0.6662
  O  O302  1  0.111500  0.615500  0.283800  1.0  -0.7198
  O  O303  1  0.175700  0.405800  0.128100  1.0  -0.7071
  O  O304  1  0.134400  0.531700  0.116800  1.0  -0.6981
  O  O305  1  0.865900  0.256000  0.173900  1.0  -0.6983
  O  O306  1  0.897200  0.054400  0.037200  1.0  -0.7358
  O  O307  1  0.839900  0.138600  0.068900  1.0  -0.7237
  O  O308  1  0.005300  0.051600  0.099000  1.0  -0.6943
  O  O309  1  0.032000  0.934900  0.204600  1.0  -0.7511
  O  O310  1  0.897400  0.216400  0.040000  1.0  -0.7608
  O  O311  1  0.004100  0.223200  0.100600  1.0  -0.6943
  O  O312  1  0.104700  0.141700  0.219400  1.0  -0.689
  O  O313  1  0.036300  0.066000  0.271000  1.0  -0.4508
  O  O314  1  0.049400  0.136000  0.333200  1.0  -0.3483
  O  O315  1  0.014100  0.141000  0.202000  1.0  -0.3074
  O  O316  1  0.868600  0.015000  0.174000  1.0  -0.6789
  O  O317  1  0.966000  0.338000  0.293700  1.0  -0.7159
  O  O318  1  0.923000  0.341000  0.141500  1.0  -0.7012
  O  O319  1  0.926200  0.928000  0.145300  1.0  -0.7234
  O  O320  1  0.963900  0.205000  0.231000  1.0  -0.3026
  O  O321  1  0.222200  0.344900  0.795300  1.0  -0.6787
  O  O322  1  0.254500  0.233100  0.875500  1.0  -0.6034
  O  O323  1  0.520700  0.220600  0.118100  1.0  -0.6727
  O  O324  1  0.442600  0.149400  0.078200  1.0  -0.7037
  O  O325  1  0.649200  0.047600  0.399000  1.0  -0.6662
  O  O326  1  0.611500  0.115500  0.283800  1.0  -0.7198
  O  O327  1  0.675700  0.905800  0.128100  1.0  -0.7071
  O  O328  1  0.634400  0.031700  0.116800  1.0  -0.6981
  O  O329  1  0.365900  0.756000  0.173900  1.0  -0.6983
  O  O330  1  0.397200  0.554400  0.037200  1.0  -0.7358
  O  O331  1  0.339900  0.638600  0.068900  1.0  -0.7237
  O  O332  1  0.505300  0.551600  0.099000  1.0  -0.6943
  O  O333  1  0.532000  0.434900  0.204600  1.0  -0.7511
  O  O334  1  0.397400  0.716400  0.040000  1.0  -0.7608
  O  O335  1  0.504100  0.723200  0.100600  1.0  -0.6943
  O  O336  1  0.604700  0.641700  0.219400  1.0  -0.689
  O  O337  1  0.536300  0.566000  0.271000  1.0  -0.4508
  O  O338  1  0.549400  0.636000  0.333200  1.0  -0.3483
  O  O339  1  0.514100  0.641000  0.202000  1.0  -0.3074
  O  O340  1  0.368600  0.515000  0.174000  1.0  -0.6789
  O  O341  1  0.466000  0.838000  0.293700  1.0  -0.7159
  O  O342  1  0.423000  0.841000  0.141500  1.0  -0.7012
  O  O343  1  0.426200  0.428000  0.145300  1.0  -0.7234
  O  O344  1  0.463900  0.705000  0.231000  1.0  -0.3026
  O  O345  1  0.722200  0.155100  0.295300  1.0  -0.6799
  O  O346  1  0.754500  0.266900  0.375500  1.0  -0.6038
  O  O347  1  0.020700  0.279400  0.618100  1.0  -0.6723
  O  O348  1  0.942600  0.350600  0.578200  1.0  -0.7036
  O  O349  1  0.149200  0.452400  0.899000  1.0  -0.6659
  O  O350  1  0.111500  0.384500  0.783800  1.0  -0.7181
  O  O351  1  0.175700  0.594200  0.628100  1.0  -0.7072
  O  O352  1  0.134400  0.468300  0.616800  1.0  -0.6971
  O  O353  1  0.865900  0.744000  0.673900  1.0  -0.698
  O  O354  1  0.897200  0.945600  0.537200  1.0  -0.7352
  O  O355  1  0.839900  0.861400  0.568900  1.0  -0.7241
  O  O356  1  0.005300  0.948400  0.599000  1.0  -0.6951
  O  O357  1  0.032000  0.065100  0.704600  1.0  -0.7541
  O  O358  1  0.897400  0.783600  0.540000  1.0  -0.7554
  O  O359  1  0.004100  0.776800  0.600600  1.0  -0.6917
  O  O360  1  0.104700  0.858300  0.719400  1.0  -0.6886
  O  O361  1  0.036300  0.934000  0.771000  1.0  -0.4473
  O  O362  1  0.049400  0.864000  0.833200  1.0  -0.3483
  O  O363  1  0.014100  0.859000  0.702000  1.0  -0.3073
  O  O364  1  0.868600  0.985000  0.674000  1.0  -0.6794
  O  O365  1  0.966000  0.662000  0.793700  1.0  -0.7141
  O  O366  1  0.923000  0.659000  0.641500  1.0  -0.7018
  O  O367  1  0.926200  0.072000  0.645300  1.0  -0.7244
  O  O368  1  0.963900  0.795000  0.731000  1.0  -0.3028
  O  O369  1  0.222200  0.655100  0.295300  1.0  -0.6799
  O  O370  1  0.254500  0.766900  0.375500  1.0  -0.6038
  O  O371  1  0.520700  0.779400  0.618100  1.0  -0.6723
  O  O372  1  0.442600  0.850600  0.578200  1.0  -0.7036
  O  O373  1  0.649200  0.952400  0.899000  1.0  -0.6659
  O  O374  1  0.611500  0.884500  0.783800  1.0  -0.7181
  O  O375  1  0.675700  0.094200  0.628100  1.0  -0.7072
  O  O376  1  0.634400  0.968300  0.616800  1.0  -0.6971
  O  O377  1  0.365900  0.244000  0.673900  1.0  -0.698
  O  O378  1  0.397200  0.445600  0.537200  1.0  -0.7352
  O  O379  1  0.339900  0.361400  0.568900  1.0  -0.7241
  O  O380  1  0.505300  0.448400  0.599000  1.0  -0.6951
  O  O381  1  0.532000  0.565100  0.704600  1.0  -0.7541
  O  O382  1  0.397400  0.283600  0.540000  1.0  -0.7554
  O  O383  1  0.504100  0.276800  0.600600  1.0  -0.6917
  O  O384  1  0.604700  0.358300  0.719400  1.0  -0.6886
  O  O385  1  0.536300  0.434000  0.771000  1.0  -0.4473
  O  O386  1  0.549400  0.364000  0.833200  1.0  -0.3483
  O  O387  1  0.514100  0.359000  0.702000  1.0  -0.3073
  O  O388  1  0.368600  0.485000  0.674000  1.0  -0.6794
  O  O389  1  0.466000  0.162000  0.793700  1.0  -0.7141
  O  O390  1  0.423000  0.159000  0.641500  1.0  -0.7018
  O  O391  1  0.426200  0.572000  0.645300  1.0  -0.7244
  O  O392  1  0.463900  0.295000  0.731000  1.0  -0.3028
  O  O393  1  0.277800  0.155100  0.204700  1.0  -0.6814
  O  O394  1  0.245500  0.266900  0.124500  1.0  -0.6027
  O  O395  1  0.979300  0.279400  0.881900  1.0  -0.6752
  O  O396  1  0.057400  0.350600  0.921800  1.0  -0.704
  O  O397  1  0.850800  0.452400  0.601000  1.0  -0.6575
  O  O398  1  0.888500  0.384500  0.716200  1.0  -0.7189
  O  O399  1  0.824300  0.594200  0.871900  1.0  -0.7048
  O  O400  1  0.865600  0.468300  0.883200  1.0  -0.6996
  O  O401  1  0.134100  0.744000  0.826100  1.0  -0.6986
  O  O402  1  0.102800  0.945600  0.962800  1.0  -0.7338
  O  O403  1  0.160100  0.861400  0.931100  1.0  -0.7239
  O  O404  1  0.994700  0.948400  0.901000  1.0  -0.6981
  O  O405  1  0.968000  0.065100  0.795400  1.0  -0.7554
  O  O406  1  0.102600  0.783600  0.960000  1.0  -0.7584
  O  O407  1  0.995900  0.776800  0.899400  1.0  -0.6966
  O  O408  1  0.895300  0.858300  0.780600  1.0  -0.6898
  O  O409  1  0.963700  0.934000  0.729000  1.0  -0.4485
  O  O410  1  0.950600  0.864000  0.666800  1.0  -0.3487
  O  O411  1  0.985900  0.859000  0.798000  1.0  -0.313
  O  O412  1  0.131400  0.985000  0.826000  1.0  -0.6805
  O  O413  1  0.034000  0.662000  0.706300  1.0  -0.7118
  O  O414  1  0.077000  0.659000  0.858500  1.0  -0.7062
  O  O415  1  0.073800  0.072000  0.854700  1.0  -0.7252
  O  O416  1  0.036100  0.795000  0.769000  1.0  -0.3015
  O  O417  1  0.777800  0.655100  0.204700  1.0  -0.6814
  O  O418  1  0.745500  0.766900  0.124500  1.0  -0.6027
  O  O419  1  0.479300  0.779400  0.881900  1.0  -0.6752
  O  O420  1  0.557400  0.850600  0.921800  1.0  -0.704
  O  O421  1  0.350800  0.952400  0.601000  1.0  -0.6575
  O  O422  1  0.388500  0.884500  0.716200  1.0  -0.7189
  O  O423  1  0.324300  0.094200  0.871900  1.0  -0.7048
  O  O424  1  0.365600  0.968300  0.883200  1.0  -0.6996
  O  O425  1  0.634100  0.244000  0.826100  1.0  -0.6986
  O  O426  1  0.602800  0.445600  0.962800  1.0  -0.7338
  O  O427  1  0.660100  0.361400  0.931100  1.0  -0.7239
  O  O428  1  0.494700  0.448400  0.901000  1.0  -0.6981
  O  O429  1  0.468000  0.565100  0.795400  1.0  -0.7554
  O  O430  1  0.602600  0.283600  0.960000  1.0  -0.7584
  O  O431  1  0.495900  0.276800  0.899400  1.0  -0.6966
  O  O432  1  0.395300  0.358300  0.780600  1.0  -0.6898
  O  O433  1  0.463700  0.434000  0.729000  1.0  -0.4485
  O  O434  1  0.450600  0.364000  0.666800  1.0  -0.3487
  O  O435  1  0.485900  0.359000  0.798000  1.0  -0.313
  O  O436  1  0.631400  0.485000  0.826000  1.0  -0.6805
  O  O437  1  0.534000  0.162000  0.706300  1.0  -0.7118
  O  O438  1  0.577000  0.159000  0.858500  1.0  -0.7062
  O  O439  1  0.573800  0.572000  0.854700  1.0  -0.7252
  O  O440  1  0.536100  0.295000  0.769000  1.0  -0.3015
  O  O441  1  0.000000  0.462900  0.250000  1.0  -0.7802
  O  O442  1  0.000000  0.801000  0.250000  1.0  -0.7153
  O  O443  1  0.500000  0.962900  0.250000  1.0  -0.7802
  O  O444  1  0.500000  0.301000  0.250000  1.0  -0.7153
  O  O445  1  0.000000  0.537100  0.750000  1.0  -0.7829
  O  O446  1  0.000000  0.199000  0.750000  1.0  -0.7131
  O  O447  1  0.500000  0.037100  0.750000  1.0  -0.7829
  O  O448  1  0.500000  0.699000  0.750000  1.0  -0.7131
