# generated using pymatgen
data_DyH3C7NO4
_symmetry_space_group_name_H-M   'P 1'
_cell_length_a   21.81080000
_cell_length_b   21.81080000
_cell_length_c   16.09530000
_cell_angle_alpha   90.00000000
_cell_angle_beta   90.00000000
_cell_angle_gamma   90.00000000
_symmetry_Int_Tables_number   1
_chemical_formula_structural   DyH3C7NO4
_chemical_formula_sum   'Dy16 H48 C112 N16 O64'
_cell_volume   7656.71120422
_cell_formula_units_Z   16
loop_
 _symmetry_equiv_pos_site_id
 _symmetry_equiv_pos_as_xyz
  1  'x, y, z'
loop_
 _atom_site_type_symbol
 _atom_site_label
 _atom_site_symmetry_multiplicity
 _atom_site_fract_x
 _atom_site_fract_y
 _atom_site_fract_z
 _atom_site_occupancy
 _atom_site_charge
  Dy  Dy1  1  0.883840  0.416590  0.123520  1.0  2.0694
  Dy  Dy2  1  0.383840  0.916590  0.623520  1.0  2.0694
  Dy  Dy3  1  0.616160  0.583410  0.623520  1.0  2.0698
  Dy  Dy4  1  0.116160  0.083410  0.123520  1.0  2.0698
  Dy  Dy5  1  0.333410  0.133840  0.373520  1.0  2.0693
  Dy  Dy6  1  0.833410  0.633840  0.873520  1.0  2.0693
  Dy  Dy7  1  0.166590  0.866160  0.873520  1.0  2.0706
  Dy  Dy8  1  0.666590  0.366160  0.373520  1.0  2.0706
  Dy  Dy9  1  0.116160  0.583410  0.876480  1.0  2.069
  Dy  Dy10  1  0.616160  0.083410  0.376480  1.0  2.069
  Dy  Dy11  1  0.383840  0.416590  0.376480  1.0  2.0691
  Dy  Dy12  1  0.883840  0.916590  0.876480  1.0  2.0691
  Dy  Dy13  1  0.666590  0.866160  0.626480  1.0  2.0697
  Dy  Dy14  1  0.166590  0.366160  0.126480  1.0  2.0697
  Dy  Dy15  1  0.833410  0.133840  0.126480  1.0  2.0686
  Dy  Dy16  1  0.333410  0.633840  0.626480  1.0  2.0686
  H  H17  1  0.773300  0.260100  0.917700  1.0  0.111
  H  H18  1  0.739200  0.329800  0.819700  1.0  0.0902
  H  H19  1  0.767800  0.431900  0.830300  1.0  0.1111
  H  H20  1  0.273300  0.760100  0.417700  1.0  0.111
  H  H21  1  0.239200  0.829800  0.319700  1.0  0.0902
  H  H22  1  0.267800  0.931900  0.330300  1.0  0.1111
  H  H23  1  0.726700  0.739900  0.417700  1.0  0.1115
  H  H24  1  0.760800  0.670200  0.319700  1.0  0.091
  H  H25  1  0.732200  0.568100  0.330300  1.0  0.1108
  H  H26  1  0.226700  0.239900  0.917700  1.0  0.1115
  H  H27  1  0.260800  0.170200  0.819700  1.0  0.091
  H  H28  1  0.232200  0.068100  0.830300  1.0  0.1108
  H  H29  1  0.489900  0.023300  0.167700  1.0  0.11
  H  H30  1  0.420200  0.989200  0.069700  1.0  0.0916
  H  H31  1  0.318100  0.017800  0.080300  1.0  0.1104
  H  H32  1  0.989900  0.523300  0.667700  1.0  0.11
  H  H33  1  0.920200  0.489200  0.569700  1.0  0.0916
  H  H34  1  0.818100  0.517800  0.580300  1.0  0.1104
  H  H35  1  0.010100  0.976700  0.667700  1.0  0.1099
  H  H36  1  0.079800  0.010800  0.569700  1.0  0.0911
  H  H37  1  0.181900  0.982200  0.580300  1.0  0.1102
  H  H38  1  0.510100  0.476700  0.167700  1.0  0.1099
  H  H39  1  0.579800  0.510800  0.069700  1.0  0.0911
  H  H40  1  0.681900  0.482200  0.080300  1.0  0.1102
  H  H41  1  0.226700  0.739900  0.082300  1.0  0.1114
  H  H42  1  0.260800  0.670200  0.180300  1.0  0.0908
  H  H43  1  0.232200  0.568100  0.169700  1.0  0.1115
  H  H44  1  0.726700  0.239900  0.582300  1.0  0.1114
  H  H45  1  0.760800  0.170200  0.680300  1.0  0.0908
  H  H46  1  0.732200  0.068100  0.669700  1.0  0.1115
  H  H47  1  0.273300  0.260100  0.582300  1.0  0.1112
  H  H48  1  0.239200  0.329800  0.680300  1.0  0.0907
  H  H49  1  0.267800  0.431900  0.669700  1.0  0.1116
  H  H50  1  0.773300  0.760100  0.082300  1.0  0.1112
  H  H51  1  0.739200  0.829800  0.180300  1.0  0.0907
  H  H52  1  0.767800  0.931900  0.169700  1.0  0.1116
  H  H53  1  0.510100  0.976700  0.832300  1.0  0.1101
  H  H54  1  0.579800  0.010800  0.930300  1.0  0.0918
  H  H55  1  0.681900  0.982200  0.919700  1.0  0.111
  H  H56  1  0.010100  0.476700  0.332300  1.0  0.1101
  H  H57  1  0.079800  0.510800  0.430300  1.0  0.0918
  H  H58  1  0.181900  0.482200  0.419700  1.0  0.111
  H  H59  1  0.989900  0.023300  0.332300  1.0  0.1101
  H  H60  1  0.920200  0.989200  0.430300  1.0  0.092
  H  H61  1  0.818100  0.017800  0.419700  1.0  0.1112
  H  H62  1  0.489900  0.523300  0.832300  1.0  0.1101
  H  H63  1  0.420200  0.489200  0.930300  1.0  0.092
  H  H64  1  0.318100  0.517800  0.919700  1.0  0.1112
  C  C65  1  0.817800  0.322900  0.988100  1.0  0.0999
  C  C66  1  0.783100  0.301400  0.922200  1.0  -0.14
  C  C67  1  0.763500  0.342900  0.863800  1.0  -0.1023
  C  C68  1  0.779700  0.403700  0.870400  1.0  -0.1463
  C  C69  1  0.814200  0.421600  0.938400  1.0  0.0847
  C  C70  1  0.834000  0.486100  0.954300  1.0  0.6836
  C  C71  1  0.845000  0.282300  0.054800  1.0  0.7022
  C  C72  1  0.317800  0.822900  0.488100  1.0  0.0999
  C  C73  1  0.283100  0.801400  0.422200  1.0  -0.14
  C  C74  1  0.263500  0.842900  0.363800  1.0  -0.1023
  C  C75  1  0.279700  0.903700  0.370400  1.0  -0.1463
  C  C76  1  0.314200  0.921600  0.438400  1.0  0.0847
  C  C77  1  0.334000  0.986100  0.454300  1.0  0.6836
  C  C78  1  0.345000  0.782300  0.554800  1.0  0.7022
  C  C79  1  0.682200  0.677100  0.488100  1.0  0.1002
  C  C80  1  0.716900  0.698600  0.422200  1.0  -0.1403
  C  C81  1  0.736500  0.657100  0.363800  1.0  -0.1033
  C  C82  1  0.720300  0.596300  0.370400  1.0  -0.1465
  C  C83  1  0.685800  0.578400  0.438400  1.0  0.0855
  C  C84  1  0.666000  0.513900  0.454300  1.0  0.6839
  C  C85  1  0.655000  0.717700  0.554800  1.0  0.6994
  C  C86  1  0.182200  0.177100  0.988100  1.0  0.1002
  C  C87  1  0.216900  0.198600  0.922200  1.0  -0.1403
  C  C88  1  0.236500  0.157100  0.863800  1.0  -0.1033
  C  C89  1  0.220300  0.096300  0.870400  1.0  -0.1465
  C  C90  1  0.185800  0.078400  0.938400  1.0  0.0855
  C  C91  1  0.166000  0.013900  0.954300  1.0  0.6839
  C  C92  1  0.155000  0.217700  0.054800  1.0  0.6994
  C  C93  1  0.427100  0.067800  0.238100  1.0  0.1007
  C  C94  1  0.448600  0.033100  0.172200  1.0  -0.1402
  C  C95  1  0.407100  0.013500  0.113800  1.0  -0.1021
  C  C96  1  0.346300  0.029700  0.120400  1.0  -0.145
  C  C97  1  0.328400  0.064200  0.188400  1.0  0.0846
  C  C98  1  0.263900  0.084000  0.204300  1.0  0.6817
  C  C99  1  0.467700  0.095000  0.304800  1.0  0.7026
  C  C100  1  0.927100  0.567800  0.738100  1.0  0.1007
  C  C101  1  0.948600  0.533100  0.672200  1.0  -0.1402
  C  C102  1  0.907100  0.513500  0.613800  1.0  -0.1021
  C  C103  1  0.846300  0.529700  0.620400  1.0  -0.145
  C  C104  1  0.828400  0.564200  0.688400  1.0  0.0846
  C  C105  1  0.763900  0.584000  0.704300  1.0  0.6817
  C  C106  1  0.967700  0.595000  0.804800  1.0  0.7026
  C  C107  1  0.072900  0.932200  0.738100  1.0  0.1004
  C  C108  1  0.051400  0.966900  0.672200  1.0  -0.1394
  C  C109  1  0.092900  0.986500  0.613800  1.0  -0.1025
  C  C110  1  0.153700  0.970300  0.620400  1.0  -0.1459
  C  C111  1  0.171600  0.935800  0.688400  1.0  0.0844
  C  C112  1  0.236100  0.916000  0.704300  1.0  0.6819
  C  C113  1  0.032300  0.905000  0.804800  1.0  0.7026
  C  C114  1  0.572900  0.432200  0.238100  1.0  0.1004
  C  C115  1  0.551400  0.466900  0.172200  1.0  -0.1394
  C  C116  1  0.592900  0.486500  0.113800  1.0  -0.1025
  C  C117  1  0.653700  0.470300  0.120400  1.0  -0.1459
  C  C118  1  0.671600  0.435800  0.188400  1.0  0.0844
  C  C119  1  0.736100  0.416000  0.204300  1.0  0.6819
  C  C120  1  0.532300  0.405000  0.304800  1.0  0.7026
  C  C121  1  0.182200  0.677100  0.011900  1.0  0.101
  C  C122  1  0.216900  0.698600  0.077800  1.0  -0.1396
  C  C123  1  0.236500  0.657100  0.136200  1.0  -0.1026
  C  C124  1  0.220300  0.596300  0.129600  1.0  -0.1457
  C  C125  1  0.185800  0.578400  0.061600  1.0  0.0852
  C  C126  1  0.166000  0.513900  0.045700  1.0  0.6839
  C  C127  1  0.155000  0.717700  0.945200  1.0  0.7007
  C  C128  1  0.682200  0.177100  0.511900  1.0  0.101
  C  C129  1  0.716900  0.198600  0.577800  1.0  -0.1396
  C  C130  1  0.736500  0.157100  0.636200  1.0  -0.1026
  C  C131  1  0.720300  0.096300  0.629600  1.0  -0.1457
  C  C132  1  0.685800  0.078400  0.561600  1.0  0.0852
  C  C133  1  0.666000  0.013900  0.545700  1.0  0.6839
  C  C134  1  0.655000  0.217700  0.445200  1.0  0.7007
  C  C135  1  0.317800  0.322900  0.511900  1.0  0.1
  C  C136  1  0.283100  0.301400  0.577800  1.0  -0.1399
  C  C137  1  0.263500  0.342900  0.636200  1.0  -0.1028
  C  C138  1  0.279700  0.403700  0.629600  1.0  -0.1479
  C  C139  1  0.314200  0.421600  0.561600  1.0  0.0844
  C  C140  1  0.334000  0.486100  0.545700  1.0  0.6835
  C  C141  1  0.345000  0.282300  0.445200  1.0  0.7
  C  C142  1  0.817800  0.822900  0.011900  1.0  0.1
  C  C143  1  0.783100  0.801400  0.077800  1.0  -0.1399
  C  C144  1  0.763500  0.842900  0.136200  1.0  -0.1028
  C  C145  1  0.779700  0.903700  0.129600  1.0  -0.1479
  C  C146  1  0.814200  0.921600  0.061600  1.0  0.0844
  C  C147  1  0.834000  0.986100  0.045700  1.0  0.6835
  C  C148  1  0.845000  0.782300  0.945200  1.0  0.7
  C  C149  1  0.572900  0.932200  0.761900  1.0  0.1003
  C  C150  1  0.551400  0.966900  0.827800  1.0  -0.1391
  C  C151  1  0.592900  0.986500  0.886200  1.0  -0.1034
  C  C152  1  0.653700  0.970300  0.879600  1.0  -0.1454
  C  C153  1  0.671600  0.935800  0.811600  1.0  0.0842
  C  C154  1  0.736100  0.916000  0.795700  1.0  0.6818
  C  C155  1  0.532300  0.905000  0.695200  1.0  0.7019
  C  C156  1  0.072900  0.432200  0.261900  1.0  0.1003
  C  C157  1  0.051400  0.466900  0.327800  1.0  -0.1391
  C  C158  1  0.092900  0.486500  0.386200  1.0  -0.1034
  C  C159  1  0.153700  0.470300  0.379600  1.0  -0.1454
  C  C160  1  0.171600  0.435800  0.311600  1.0  0.0842
  C  C161  1  0.236100  0.416000  0.295700  1.0  0.6818
  C  C162  1  0.032300  0.405000  0.195200  1.0  0.7019
  C  C163  1  0.927100  0.067800  0.261900  1.0  0.1015
  C  C164  1  0.948600  0.033100  0.327800  1.0  -0.1395
  C  C165  1  0.907100  0.013500  0.386200  1.0  -0.1014
  C  C166  1  0.846300  0.029700  0.379600  1.0  -0.1455
  C  C167  1  0.828400  0.064200  0.311600  1.0  0.0843
  C  C168  1  0.763900  0.084000  0.295700  1.0  0.682
  C  C169  1  0.967700  0.095000  0.195200  1.0  0.7021
  C  C170  1  0.427100  0.567800  0.761900  1.0  0.1015
  C  C171  1  0.448600  0.533100  0.827800  1.0  -0.1395
  C  C172  1  0.407100  0.513500  0.886200  1.0  -0.1014
  C  C173  1  0.346300  0.529700  0.879600  1.0  -0.1455
  C  C174  1  0.328400  0.564200  0.811600  1.0  0.0843
  C  C175  1  0.263900  0.584000  0.795700  1.0  0.682
  C  C176  1  0.467700  0.595000  0.695200  1.0  0.7021
  N  N177  1  0.832200  0.381800  0.996000  1.0  -0.5078
  N  N178  1  0.332200  0.881800  0.496000  1.0  -0.5078
  N  N179  1  0.667800  0.618200  0.496000  1.0  -0.5104
  N  N180  1  0.167800  0.118200  0.996000  1.0  -0.5104
  N  N181  1  0.368200  0.082200  0.246000  1.0  -0.5122
  N  N182  1  0.868200  0.582200  0.746000  1.0  -0.5122
  N  N183  1  0.131800  0.917800  0.746000  1.0  -0.5108
  N  N184  1  0.631800  0.417800  0.246000  1.0  -0.5108
  N  N185  1  0.167800  0.618200  0.004000  1.0  -0.5117
  N  N186  1  0.667800  0.118200  0.504000  1.0  -0.5117
  N  N187  1  0.332200  0.381800  0.504000  1.0  -0.5088
  N  N188  1  0.832200  0.881800  0.004000  1.0  -0.5088
  N  N189  1  0.631800  0.917800  0.754000  1.0  -0.5124
  N  N190  1  0.131800  0.417800  0.254000  1.0  -0.5124
  N  N191  1  0.868200  0.082200  0.254000  1.0  -0.5139
  N  N192  1  0.368200  0.582200  0.754000  1.0  -0.5139
  O  O193  1  0.860900  0.495400  0.023300  1.0  -0.7622
  O  O194  1  0.822900  0.526900  0.902000  1.0  -0.76
  O  O195  1  0.876200  0.308900  0.110100  1.0  -0.7161
  O  O196  1  0.835500  0.226000  0.052400  1.0  -0.8085
  O  O197  1  0.360900  0.995400  0.523300  1.0  -0.7622
  O  O198  1  0.322900  0.026900  0.402000  1.0  -0.76
  O  O199  1  0.376200  0.808900  0.610100  1.0  -0.7161
  O  O200  1  0.335500  0.726000  0.552400  1.0  -0.8085
  O  O201  1  0.639100  0.504600  0.523300  1.0  -0.7612
  O  O202  1  0.677100  0.473100  0.402000  1.0  -0.7628
  O  O203  1  0.623800  0.691100  0.610100  1.0  -0.7144
  O  O204  1  0.664500  0.774000  0.552400  1.0  -0.8092
  O  O205  1  0.139100  0.004600  0.023300  1.0  -0.7612
  O  O206  1  0.177100  0.973100  0.902000  1.0  -0.7628
  O  O207  1  0.123800  0.191100  0.110100  1.0  -0.7144
  O  O208  1  0.164500  0.274000  0.052400  1.0  -0.8092
  O  O209  1  0.254600  0.110900  0.273300  1.0  -0.7616
  O  O210  1  0.223100  0.072900  0.152000  1.0  -0.7644
  O  O211  1  0.441100  0.126200  0.360100  1.0  -0.7176
  O  O212  1  0.524000  0.085500  0.302400  1.0  -0.8136
  O  O213  1  0.754600  0.610900  0.773300  1.0  -0.7616
  O  O214  1  0.723100  0.572900  0.652000  1.0  -0.7644
  O  O215  1  0.941100  0.626200  0.860100  1.0  -0.7176
  O  O216  1  0.024000  0.585500  0.802400  1.0  -0.8136
  O  O217  1  0.245400  0.889100  0.773300  1.0  -0.7587
  O  O218  1  0.276900  0.927100  0.652000  1.0  -0.765
  O  O219  1  0.058900  0.873800  0.860100  1.0  -0.7178
  O  O220  1  0.976000  0.914500  0.802400  1.0  -0.8144
  O  O221  1  0.745400  0.389100  0.273300  1.0  -0.7587
  O  O222  1  0.776900  0.427100  0.152000  1.0  -0.765
  O  O223  1  0.558900  0.373800  0.360100  1.0  -0.7178
  O  O224  1  0.476000  0.414500  0.302400  1.0  -0.8144
  O  O225  1  0.139100  0.504600  0.976700  1.0  -0.7609
  O  O226  1  0.177100  0.473100  0.098000  1.0  -0.7629
  O  O227  1  0.123800  0.691100  0.889900  1.0  -0.7174
  O  O228  1  0.164500  0.774000  0.947600  1.0  -0.8075
  O  O229  1  0.639100  0.004600  0.476700  1.0  -0.7609
  O  O230  1  0.677100  0.973100  0.598000  1.0  -0.7629
  O  O231  1  0.623800  0.191100  0.389900  1.0  -0.7174
  O  O232  1  0.664500  0.274000  0.447600  1.0  -0.8075
  O  O233  1  0.360900  0.495400  0.476700  1.0  -0.7611
  O  O234  1  0.322900  0.526900  0.598000  1.0  -0.7604
  O  O235  1  0.376200  0.308900  0.389900  1.0  -0.718
  O  O236  1  0.335500  0.226000  0.447600  1.0  -0.8074
  O  O237  1  0.860900  0.995400  0.976700  1.0  -0.7611
  O  O238  1  0.822900  0.026900  0.098000  1.0  -0.7604
  O  O239  1  0.876200  0.808900  0.889900  1.0  -0.718
  O  O240  1  0.835500  0.726000  0.947600  1.0  -0.8074
  O  O241  1  0.745400  0.889100  0.726700  1.0  -0.7578
  O  O242  1  0.776900  0.927100  0.848000  1.0  -0.7655
  O  O243  1  0.558900  0.873800  0.639900  1.0  -0.7202
  O  O244  1  0.476000  0.914500  0.697600  1.0  -0.8132
  O  O245  1  0.245400  0.389100  0.226700  1.0  -0.7578
  O  O246  1  0.276900  0.427100  0.348000  1.0  -0.7655
  O  O247  1  0.058900  0.373800  0.139900  1.0  -0.7202
  O  O248  1  0.976000  0.414500  0.197600  1.0  -0.8132
  O  O249  1  0.754600  0.110900  0.226700  1.0  -0.7622
  O  O250  1  0.723100  0.072900  0.348000  1.0  -0.765
  O  O251  1  0.941100  0.126200  0.139900  1.0  -0.7193
  O  O252  1  0.024000  0.085500  0.197600  1.0  -0.8126
  O  O253  1  0.254600  0.610900  0.726700  1.0  -0.7622
  O  O254  1  0.223100  0.572900  0.848000  1.0  -0.765
  O  O255  1  0.441100  0.626200  0.639900  1.0  -0.7193
  O  O256  1  0.524000  0.585500  0.697600  1.0  -0.8126
