# generated using pymatgen
data_KLa4BH12W12C28(N2O25)2
_symmetry_space_group_name_H-M   'P 1'
_cell_length_a   30.77800000
_cell_length_b   15.58700000
_cell_length_c   22.10300000
_cell_angle_alpha   90.00000000
_cell_angle_beta   132.99500000
_cell_angle_gamma   90.00000000
_symmetry_Int_Tables_number   1
_chemical_formula_structural   KLa4BH12W12C28(N2O25)2
_chemical_formula_sum   'K4 La16 B4 H48 W48 C112 N16 O200'
_cell_volume   7755.62776721
_cell_formula_units_Z   4
loop_
 _symmetry_equiv_pos_site_id
 _symmetry_equiv_pos_as_xyz
  1  'x, y, z'
loop_
 _atom_site_type_symbol
 _atom_site_label
 _atom_site_symmetry_multiplicity
 _atom_site_fract_x
 _atom_site_fract_y
 _atom_site_fract_z
 _atom_site_occupancy
 _atom_site_charge
  K  K1  1  0.000000  0.136400  0.250000  1.0  0.8987
  K  K2  1  0.500000  0.636400  0.250000  1.0  0.8987
  K  K3  1  0.000000  0.863600  0.750000  1.0  0.8983
  K  K4  1  0.500000  0.363600  0.750000  1.0  0.8983
  La  La5  1  0.830930  0.127170  0.986950  1.0  2.1179
  La  La6  1  0.890000  0.856950  0.829640  1.0  2.0651
  La  La7  1  0.330930  0.627170  0.986950  1.0  2.1179
  La  La8  1  0.390000  0.356950  0.829640  1.0  2.0651
  La  La9  1  0.169070  0.127170  0.513050  1.0  2.1152
  La  La10  1  0.110000  0.856950  0.670360  1.0  2.0644
  La  La11  1  0.669070  0.627170  0.513050  1.0  2.1152
  La  La12  1  0.610000  0.356950  0.670360  1.0  2.0644
  La  La13  1  0.169070  0.872830  0.013050  1.0  2.1161
  La  La14  1  0.110000  0.143050  0.170360  1.0  2.0663
  La  La15  1  0.669070  0.372830  0.013050  1.0  2.1161
  La  La16  1  0.610000  0.643050  0.170360  1.0  2.0663
  La  La17  1  0.830930  0.872830  0.486950  1.0  2.1182
  La  La18  1  0.890000  0.143050  0.329640  1.0  2.0658
  La  La19  1  0.330930  0.372830  0.486950  1.0  2.1182
  La  La20  1  0.390000  0.643050  0.329640  1.0  2.0658
  B  B21  1  0.000000  0.632000  0.250000  1.0  0.6386
  B  B22  1  0.500000  0.132000  0.250000  1.0  0.6386
  B  B23  1  0.000000  0.368000  0.750000  1.0  0.6379
  B  B24  1  0.500000  0.868000  0.750000  1.0  0.6379
  H  H25  1  0.755900  0.150400  0.715400  1.0  0.1336
  H  H26  1  0.737500  0.161300  0.594200  1.0  0.0898
  H  H27  1  0.779400  0.086800  0.568000  1.0  0.1502
  H  H28  1  0.983300  0.363900  0.032000  1.0  0.1149
  H  H29  1  0.917200  0.463300  0.935100  1.0  0.1355
  H  H30  1  0.815700  0.437700  0.853600  1.0  0.1211
  H  H31  1  0.255900  0.650400  0.715400  1.0  0.1336
  H  H32  1  0.237500  0.661300  0.594200  1.0  0.0898
  H  H33  1  0.279400  0.586800  0.568000  1.0  0.1502
  H  H34  1  0.483300  0.863900  0.032000  1.0  0.1149
  H  H35  1  0.417200  0.963300  0.935100  1.0  0.1355
  H  H36  1  0.315700  0.937700  0.853600  1.0  0.1211
  H  H37  1  0.244100  0.150400  0.784600  1.0  0.133
  H  H38  1  0.262500  0.161300  0.905800  1.0  0.0891
  H  H39  1  0.220600  0.086800  0.932000  1.0  0.15
  H  H40  1  0.016700  0.363900  0.468000  1.0  0.1145
  H  H41  1  0.082800  0.463300  0.564900  1.0  0.1357
  H  H42  1  0.184300  0.437700  0.646400  1.0  0.1208
  H  H43  1  0.744100  0.650400  0.784600  1.0  0.133
  H  H44  1  0.762500  0.661300  0.905800  1.0  0.0891
  H  H45  1  0.720600  0.586800  0.932000  1.0  0.15
  H  H46  1  0.516700  0.863900  0.468000  1.0  0.1145
  H  H47  1  0.582800  0.963300  0.564900  1.0  0.1357
  H  H48  1  0.684300  0.937700  0.646400  1.0  0.1208
  H  H49  1  0.244100  0.849600  0.284600  1.0  0.1328
  H  H50  1  0.262500  0.838700  0.405800  1.0  0.0889
  H  H51  1  0.220600  0.913200  0.432000  1.0  0.15
  H  H52  1  0.016700  0.636100  0.968000  1.0  0.1145
  H  H53  1  0.082800  0.536700  0.064900  1.0  0.1367
  H  H54  1  0.184300  0.562300  0.146400  1.0  0.1212
  H  H55  1  0.744100  0.349600  0.284600  1.0  0.1328
  H  H56  1  0.762500  0.338700  0.405800  1.0  0.0889
  H  H57  1  0.720600  0.413200  0.432000  1.0  0.15
  H  H58  1  0.516700  0.136100  0.968000  1.0  0.1145
  H  H59  1  0.582800  0.036700  0.064900  1.0  0.1367
  H  H60  1  0.684300  0.062300  0.146400  1.0  0.1212
  H  H61  1  0.755900  0.849600  0.215400  1.0  0.1332
  H  H62  1  0.737500  0.838700  0.094200  1.0  0.089
  H  H63  1  0.779400  0.913200  0.068000  1.0  0.1502
  H  H64  1  0.983300  0.636100  0.532000  1.0  0.1146
  H  H65  1  0.917200  0.536700  0.435100  1.0  0.1366
  H  H66  1  0.815700  0.562300  0.353600  1.0  0.1209
  H  H67  1  0.255900  0.349600  0.215400  1.0  0.1332
  H  H68  1  0.237500  0.338700  0.094200  1.0  0.089
  H  H69  1  0.279400  0.413200  0.068000  1.0  0.1502
  H  H70  1  0.483300  0.136100  0.532000  1.0  0.1146
  H  H71  1  0.417200  0.036700  0.435100  1.0  0.1366
  H  H72  1  0.315700  0.062300  0.353600  1.0  0.1209
  W  W73  1  0.052890  0.635810  0.448890  1.0  1.466
  W  W74  1  0.924460  0.524000  0.290000  1.0  1.3835
  W  W75  1  0.127650  0.524310  0.408490  1.0  1.3648
  W  W76  1  0.923660  0.747500  0.290100  1.0  1.5552
  W  W77  1  0.129930  0.747120  0.408530  1.0  1.4722
  W  W78  1  0.552890  0.135810  0.448890  1.0  1.466
  W  W79  1  0.424460  0.024000  0.290000  1.0  1.3835
  W  W80  1  0.627650  0.024310  0.408490  1.0  1.3648
  W  W81  1  0.423660  0.247500  0.290100  1.0  1.5552
  W  W82  1  0.629930  0.247120  0.408530  1.0  1.4722
  W  W83  1  0.947110  0.635810  0.051110  1.0  1.4683
  W  W84  1  0.075540  0.524000  0.210000  1.0  1.3815
  W  W85  1  0.872350  0.524310  0.091510  1.0  1.3628
  W  W86  1  0.076340  0.747500  0.209900  1.0  1.5561
  W  W87  1  0.870070  0.747120  0.091470  1.0  1.4724
  W  W88  1  0.447110  0.135810  0.051110  1.0  1.4683
  W  W89  1  0.575540  0.024000  0.210000  1.0  1.3815
  W  W90  1  0.372350  0.024310  0.091510  1.0  1.3628
  W  W91  1  0.576340  0.247500  0.209900  1.0  1.5561
  W  W92  1  0.370070  0.247120  0.091470  1.0  1.4724
  W  W93  1  0.947110  0.364190  0.551110  1.0  1.4677
  W  W94  1  0.075540  0.476000  0.710000  1.0  1.3885
  W  W95  1  0.872350  0.475690  0.591510  1.0  1.366
  W  W96  1  0.076340  0.252500  0.709900  1.0  1.5503
  W  W97  1  0.870070  0.252880  0.591470  1.0  1.4693
  W  W98  1  0.447110  0.864190  0.551110  1.0  1.4677
  W  W99  1  0.575540  0.976000  0.710000  1.0  1.3885
  W  W100  1  0.372350  0.975690  0.591510  1.0  1.366
  W  W101  1  0.576340  0.752500  0.709900  1.0  1.5503
  W  W102  1  0.370070  0.752880  0.591470  1.0  1.4693
  W  W103  1  0.052890  0.364190  0.948890  1.0  1.4659
  W  W104  1  0.924460  0.476000  0.790000  1.0  1.3853
  W  W105  1  0.127650  0.475690  0.908490  1.0  1.3695
  W  W106  1  0.923660  0.252500  0.790100  1.0  1.5513
  W  W107  1  0.129930  0.252880  0.908530  1.0  1.4672
  W  W108  1  0.552890  0.864190  0.948890  1.0  1.4659
  W  W109  1  0.424460  0.976000  0.790000  1.0  1.3853
  W  W110  1  0.627650  0.975690  0.908490  1.0  1.3695
  W  W111  1  0.423660  0.752500  0.790100  1.0  1.5513
  W  W112  1  0.629930  0.752880  0.908530  1.0  1.4672
  W  W113  1  0.000000  0.411120  0.250000  1.0  2.0213
  W  W114  1  0.000000  0.858260  0.250000  1.0  1.8732
  W  W115  1  0.500000  0.911120  0.250000  1.0  2.0213
  W  W116  1  0.500000  0.358260  0.250000  1.0  1.8732
  W  W117  1  0.000000  0.588880  0.750000  1.0  2.0256
  W  W118  1  0.000000  0.141740  0.750000  1.0  1.8724
  W  W119  1  0.500000  0.088880  0.750000  1.0  2.0256
  W  W120  1  0.500000  0.641740  0.750000  1.0  1.8724
  C  C121  1  0.816300  0.052000  0.761000  1.0  0.0782
  C  C122  1  0.774900  0.115200  0.705500  1.0  -0.1238
  C  C123  1  0.765000  0.120000  0.633000  1.0  -0.1109
  C  C124  1  0.787600  0.077000  0.616000  1.0  -0.0924
  C  C125  1  0.829100  0.008000  0.674000  1.0  0.0359
  C  C126  1  0.839700  0.036000  0.848800  1.0  0.6544
  C  C127  1  0.859400  0.948000  0.663600  1.0  0.6836
  C  C128  1  0.923700  0.285000  0.012000  1.0  0.1175
  C  C129  1  0.942800  0.356000  0.000000  1.0  -0.0404
  C  C130  1  0.904200  0.414000  0.942100  1.0  -0.1464
  C  C131  1  0.844000  0.398000  0.893000  1.0  -0.071
  C  C132  1  0.825500  0.324000  0.902000  1.0  0.0965
  C  C133  1  0.967200  0.214000  0.077000  1.0  0.6966
  C  C134  1  0.760900  0.300000  0.852000  1.0  0.714
  C  C135  1  0.316300  0.552000  0.761000  1.0  0.0782
  C  C136  1  0.274900  0.615200  0.705500  1.0  -0.1238
  C  C137  1  0.265000  0.620000  0.633000  1.0  -0.1109
  C  C138  1  0.287600  0.577000  0.616000  1.0  -0.0924
  C  C139  1  0.329100  0.508000  0.674000  1.0  0.0359
  C  C140  1  0.339700  0.536000  0.848800  1.0  0.6544
  C  C141  1  0.359400  0.448000  0.663600  1.0  0.6836
  C  C142  1  0.423700  0.785000  0.012000  1.0  0.1175
  C  C143  1  0.442800  0.856000  0.000000  1.0  -0.0404
  C  C144  1  0.404200  0.914000  0.942100  1.0  -0.1464
  C  C145  1  0.344000  0.898000  0.893000  1.0  -0.071
  C  C146  1  0.325500  0.824000  0.902000  1.0  0.0965
  C  C147  1  0.467200  0.714000  0.077000  1.0  0.6966
  C  C148  1  0.260900  0.800000  0.852000  1.0  0.714
  C  C149  1  0.183700  0.052000  0.739000  1.0  0.0781
  C  C150  1  0.225100  0.115200  0.794500  1.0  -0.1219
  C  C151  1  0.235000  0.120000  0.867000  1.0  -0.1103
  C  C152  1  0.212400  0.077000  0.884000  1.0  -0.0914
  C  C153  1  0.170900  0.008000  0.826000  1.0  0.0353
  C  C154  1  0.160300  0.036000  0.651200  1.0  0.6553
  C  C155  1  0.140600  0.948000  0.836400  1.0  0.684
  C  C156  1  0.076300  0.285000  0.488000  1.0  0.1143
  C  C157  1  0.057200  0.356000  0.500000  1.0  -0.0406
  C  C158  1  0.095800  0.414000  0.557900  1.0  -0.1463
  C  C159  1  0.156000  0.398000  0.607000  1.0  -0.0711
  C  C160  1  0.174500  0.324000  0.598000  1.0  0.0978
  C  C161  1  0.032800  0.214000  0.423000  1.0  0.6942
  C  C162  1  0.239100  0.300000  0.648000  1.0  0.7153
  C  C163  1  0.683700  0.552000  0.739000  1.0  0.0781
  C  C164  1  0.725100  0.615200  0.794500  1.0  -0.1219
  C  C165  1  0.735000  0.620000  0.867000  1.0  -0.1103
  C  C166  1  0.712400  0.577000  0.884000  1.0  -0.0914
  C  C167  1  0.670900  0.508000  0.826000  1.0  0.0353
  C  C168  1  0.660300  0.536000  0.651200  1.0  0.6553
  C  C169  1  0.640600  0.448000  0.836400  1.0  0.684
  C  C170  1  0.576300  0.785000  0.488000  1.0  0.1143
  C  C171  1  0.557200  0.856000  0.500000  1.0  -0.0406
  C  C172  1  0.595800  0.914000  0.557900  1.0  -0.1463
  C  C173  1  0.656000  0.898000  0.607000  1.0  -0.0711
  C  C174  1  0.674500  0.824000  0.598000  1.0  0.0978
  C  C175  1  0.532800  0.714000  0.423000  1.0  0.6942
  C  C176  1  0.739100  0.800000  0.648000  1.0  0.7153
  C  C177  1  0.183700  0.948000  0.239000  1.0  0.0782
  C  C178  1  0.225100  0.884800  0.294500  1.0  -0.1219
  C  C179  1  0.235000  0.880000  0.367000  1.0  -0.11
  C  C180  1  0.212400  0.923000  0.384000  1.0  -0.0915
  C  C181  1  0.170900  0.992000  0.326000  1.0  0.0356
  C  C182  1  0.160300  0.964000  0.151200  1.0  0.6547
  C  C183  1  0.140600  0.052000  0.336400  1.0  0.6833
  C  C184  1  0.076300  0.715000  0.988000  1.0  0.1153
  C  C185  1  0.057200  0.644000  0.000000  1.0  -0.0403
  C  C186  1  0.095800  0.586000  0.057900  1.0  -0.1457
  C  C187  1  0.156000  0.602000  0.107000  1.0  -0.071
  C  C188  1  0.174500  0.676000  0.098000  1.0  0.0976
  C  C189  1  0.032800  0.786000  0.923000  1.0  0.6944
  C  C190  1  0.239100  0.700000  0.148000  1.0  0.7152
  C  C191  1  0.683700  0.448000  0.239000  1.0  0.0782
  C  C192  1  0.725100  0.384800  0.294500  1.0  -0.1219
  C  C193  1  0.735000  0.380000  0.367000  1.0  -0.11
  C  C194  1  0.712400  0.423000  0.384000  1.0  -0.0915
  C  C195  1  0.670900  0.492000  0.326000  1.0  0.0356
  C  C196  1  0.660300  0.464000  0.151200  1.0  0.6547
  C  C197  1  0.640600  0.552000  0.336400  1.0  0.6833
  C  C198  1  0.576300  0.215000  0.988000  1.0  0.1153
  C  C199  1  0.557200  0.144000  0.000000  1.0  -0.0403
  C  C200  1  0.595800  0.086000  0.057900  1.0  -0.1457
  C  C201  1  0.656000  0.102000  0.107000  1.0  -0.071
  C  C202  1  0.674500  0.176000  0.098000  1.0  0.0976
  C  C203  1  0.532800  0.286000  0.923000  1.0  0.6944
  C  C204  1  0.739100  0.200000  0.148000  1.0  0.7152
  C  C205  1  0.816300  0.948000  0.261000  1.0  0.0784
  C  C206  1  0.774900  0.884800  0.205500  1.0  -0.123
  C  C207  1  0.765000  0.880000  0.133000  1.0  -0.1115
  C  C208  1  0.787600  0.923000  0.116000  1.0  -0.0922
  C  C209  1  0.829100  0.992000  0.174000  1.0  0.0364
  C  C210  1  0.839700  0.964000  0.348800  1.0  0.6549
  C  C211  1  0.859400  0.052000  0.163600  1.0  0.684
  C  C212  1  0.923700  0.715000  0.512000  1.0  0.1172
  C  C213  1  0.942800  0.644000  0.500000  1.0  -0.0402
  C  C214  1  0.904200  0.586000  0.442100  1.0  -0.1464
  C  C215  1  0.844000  0.602000  0.393000  1.0  -0.071
  C  C216  1  0.825500  0.676000  0.402000  1.0  0.097
  C  C217  1  0.967200  0.786000  0.577000  1.0  0.6973
  C  C218  1  0.760900  0.700000  0.352000  1.0  0.7144
  C  C219  1  0.316300  0.448000  0.261000  1.0  0.0784
  C  C220  1  0.274900  0.384800  0.205500  1.0  -0.123
  C  C221  1  0.265000  0.380000  0.133000  1.0  -0.1115
  C  C222  1  0.287600  0.423000  0.116000  1.0  -0.0922
  C  C223  1  0.329100  0.492000  0.174000  1.0  0.0364
  C  C224  1  0.339700  0.464000  0.348800  1.0  0.6549
  C  C225  1  0.359400  0.552000  0.163600  1.0  0.684
  C  C226  1  0.423700  0.215000  0.512000  1.0  0.1172
  C  C227  1  0.442800  0.144000  0.500000  1.0  -0.0402
  C  C228  1  0.404200  0.086000  0.442100  1.0  -0.1464
  C  C229  1  0.344000  0.102000  0.393000  1.0  -0.071
  C  C230  1  0.325500  0.176000  0.402000  1.0  0.097
  C  C231  1  0.467200  0.286000  0.577000  1.0  0.6973
  C  C232  1  0.260900  0.200000  0.352000  1.0  0.7144
  N  N233  1  0.841200  0.996800  0.745600  1.0  -0.4063
  N  N234  1  0.866800  0.270500  0.964700  1.0  -0.3557
  N  N235  1  0.341200  0.496800  0.745600  1.0  -0.4063
  N  N236  1  0.366800  0.770500  0.964700  1.0  -0.3557
  N  N237  1  0.158800  0.996800  0.754400  1.0  -0.409
  N  N238  1  0.133200  0.270500  0.535300  1.0  -0.3556
  N  N239  1  0.658800  0.496800  0.754400  1.0  -0.409
  N  N240  1  0.633200  0.770500  0.535300  1.0  -0.3556
  N  N241  1  0.158800  0.003200  0.254400  1.0  -0.4089
  N  N242  1  0.133200  0.729500  0.035300  1.0  -0.3567
  N  N243  1  0.658800  0.503200  0.254400  1.0  -0.4089
  N  N244  1  0.633200  0.229500  0.035300  1.0  -0.3567
  N  N245  1  0.841200  0.003200  0.245600  1.0  -0.4088
  N  N246  1  0.866800  0.729500  0.464700  1.0  -0.3561
  N  N247  1  0.341200  0.503200  0.245600  1.0  -0.4088
  N  N248  1  0.366800  0.229500  0.464700  1.0  -0.3561
  O  O249  1  0.943700  0.151000  0.078500  1.0  -0.6491
  O  O250  1  0.865000  0.969200  0.882200  1.0  -0.5841
  O  O251  1  0.888600  0.886200  0.716300  1.0  -0.7582
  O  O252  1  0.723000  0.345100  0.795200  1.0  -0.6346
  O  O253  1  0.020700  0.222400  0.116700  1.0  -0.6998
  O  O254  1  0.823700  0.095000  0.871000  1.0  -0.7183
  O  O255  1  0.755100  0.234000  0.875400  1.0  -0.6412
  O  O256  1  0.853300  0.952000  0.602600  1.0  -0.708
  O  O257  1  0.968700  0.437000  0.296200  1.0  -0.838
  O  O258  1  0.102400  0.718900  0.458900  1.0  -0.7474
  O  O259  1  0.073700  0.434000  0.355000  1.0  -0.7517
  O  O260  1  0.867300  0.510000  0.171000  1.0  -0.6595
  O  O261  1  0.102400  0.556000  0.462000  1.0  -0.7586
  O  O262  1  0.895600  0.640000  0.278100  1.0  -0.692
  O  O263  1  0.994300  0.722000  0.398000  1.0  -0.7175
  O  O264  1  0.994700  0.552300  0.401200  1.0  -0.6798
  O  O265  1  0.962000  0.711000  0.234000  1.0  -0.3885
  O  O266  1  0.160000  0.640000  0.430200  1.0  -0.7292
  O  O267  1  0.966000  0.842000  0.294000  1.0  -0.694
  O  O268  1  0.077000  0.840000  0.361000  1.0  -0.6835
  O  O269  1  0.865300  0.756000  0.172000  1.0  -0.6755
  O  O270  1  0.949000  0.640000  0.161000  1.0  -0.4073
  O  O271  1  0.039400  0.553000  0.272000  1.0  -0.6618
  O  O272  1  0.984100  0.635000  0.299000  1.0  -0.3465
  O  O273  1  0.443700  0.651000  0.078500  1.0  -0.6491
  O  O274  1  0.365000  0.469200  0.882200  1.0  -0.5841
  O  O275  1  0.388600  0.386200  0.716300  1.0  -0.7582
  O  O276  1  0.223000  0.845100  0.795200  1.0  -0.6346
  O  O277  1  0.520700  0.722400  0.116700  1.0  -0.6998
  O  O278  1  0.323700  0.595000  0.871000  1.0  -0.7183
  O  O279  1  0.255100  0.734000  0.875400  1.0  -0.6412
  O  O280  1  0.353300  0.452000  0.602600  1.0  -0.708
  O  O281  1  0.468700  0.937000  0.296200  1.0  -0.838
  O  O282  1  0.602400  0.218900  0.458900  1.0  -0.7474
  O  O283  1  0.573700  0.934000  0.355000  1.0  -0.7517
  O  O284  1  0.367300  0.010000  0.171000  1.0  -0.6595
  O  O285  1  0.602400  0.056000  0.462000  1.0  -0.7586
  O  O286  1  0.395600  0.140000  0.278100  1.0  -0.692
  O  O287  1  0.494300  0.222000  0.398000  1.0  -0.7175
  O  O288  1  0.494700  0.052300  0.401200  1.0  -0.6798
  O  O289  1  0.462000  0.211000  0.234000  1.0  -0.3885
  O  O290  1  0.660000  0.140000  0.430200  1.0  -0.7292
  O  O291  1  0.466000  0.342000  0.294000  1.0  -0.694
  O  O292  1  0.577000  0.340000  0.361000  1.0  -0.6835
  O  O293  1  0.365300  0.256000  0.172000  1.0  -0.6755
  O  O294  1  0.449000  0.140000  0.161000  1.0  -0.4073
  O  O295  1  0.539400  0.053000  0.272000  1.0  -0.6618
  O  O296  1  0.484100  0.135000  0.299000  1.0  -0.3465
  O  O297  1  0.056300  0.151000  0.421500  1.0  -0.6508
  O  O298  1  0.135000  0.969200  0.617800  1.0  -0.5835
  O  O299  1  0.111400  0.886200  0.783700  1.0  -0.7558
  O  O300  1  0.277000  0.345100  0.704800  1.0  -0.6344
  O  O301  1  0.979300  0.222400  0.383300  1.0  -0.6996
  O  O302  1  0.176300  0.095000  0.629000  1.0  -0.7206
  O  O303  1  0.244900  0.234000  0.624600  1.0  -0.6426
  O  O304  1  0.146700  0.952000  0.897400  1.0  -0.7091
  O  O305  1  0.031300  0.437000  0.203800  1.0  -0.8357
  O  O306  1  0.897600  0.718900  0.041100  1.0  -0.75
  O  O307  1  0.926300  0.434000  0.145000  1.0  -0.7518
  O  O308  1  0.132700  0.510000  0.329000  1.0  -0.6571
  O  O309  1  0.897600  0.556000  0.038000  1.0  -0.7612
  O  O310  1  0.104400  0.640000  0.221900  1.0  -0.6913
  O  O311  1  0.005700  0.722000  0.102000  1.0  -0.7165
  O  O312  1  0.005300  0.552300  0.098800  1.0  -0.6789
  O  O313  1  0.038000  0.711000  0.266000  1.0  -0.3878
  O  O314  1  0.840000  0.640000  0.069800  1.0  -0.7303
  O  O315  1  0.034000  0.842000  0.206000  1.0  -0.6969
  O  O316  1  0.923000  0.840000  0.139000  1.0  -0.6861
  O  O317  1  0.134700  0.756000  0.328000  1.0  -0.6768
  O  O318  1  0.051000  0.640000  0.339000  1.0  -0.4098
  O  O319  1  0.960600  0.553000  0.228000  1.0  -0.6627
  O  O320  1  0.015900  0.635000  0.201000  1.0  -0.3395
  O  O321  1  0.556300  0.651000  0.421500  1.0  -0.6508
  O  O322  1  0.635000  0.469200  0.617800  1.0  -0.5835
  O  O323  1  0.611400  0.386200  0.783700  1.0  -0.7558
  O  O324  1  0.777000  0.845100  0.704800  1.0  -0.6344
  O  O325  1  0.479300  0.722400  0.383300  1.0  -0.6996
  O  O326  1  0.676300  0.595000  0.629000  1.0  -0.7206
  O  O327  1  0.744900  0.734000  0.624600  1.0  -0.6426
  O  O328  1  0.646700  0.452000  0.897400  1.0  -0.7091
  O  O329  1  0.531300  0.937000  0.203800  1.0  -0.8357
  O  O330  1  0.397600  0.218900  0.041100  1.0  -0.75
  O  O331  1  0.426300  0.934000  0.145000  1.0  -0.7518
  O  O332  1  0.632700  0.010000  0.329000  1.0  -0.6571
  O  O333  1  0.397600  0.056000  0.038000  1.0  -0.7612
  O  O334  1  0.604400  0.140000  0.221900  1.0  -0.6913
  O  O335  1  0.505700  0.222000  0.102000  1.0  -0.7165
  O  O336  1  0.505300  0.052300  0.098800  1.0  -0.6789
  O  O337  1  0.538000  0.211000  0.266000  1.0  -0.3878
  O  O338  1  0.340000  0.140000  0.069800  1.0  -0.7303
  O  O339  1  0.534000  0.342000  0.206000  1.0  -0.6969
  O  O340  1  0.423000  0.340000  0.139000  1.0  -0.6861
  O  O341  1  0.634700  0.256000  0.328000  1.0  -0.6768
  O  O342  1  0.551000  0.140000  0.339000  1.0  -0.4098
  O  O343  1  0.460600  0.053000  0.228000  1.0  -0.6627
  O  O344  1  0.515900  0.135000  0.201000  1.0  -0.3395
  O  O345  1  0.056300  0.849000  0.921500  1.0  -0.6527
  O  O346  1  0.135000  0.030800  0.117800  1.0  -0.5843
  O  O347  1  0.111400  0.113800  0.283700  1.0  -0.7583
  O  O348  1  0.277000  0.654900  0.204800  1.0  -0.636
  O  O349  1  0.979300  0.777600  0.883300  1.0  -0.7054
  O  O350  1  0.176300  0.905000  0.129000  1.0  -0.7205
  O  O351  1  0.244900  0.766000  0.124600  1.0  -0.6414
  O  O352  1  0.146700  0.048000  0.397400  1.0  -0.7094
  O  O353  1  0.031300  0.563000  0.703800  1.0  -0.8426
  O  O354  1  0.897600  0.281100  0.541100  1.0  -0.7445
  O  O355  1  0.926300  0.566000  0.645000  1.0  -0.7567
  O  O356  1  0.132700  0.490000  0.829000  1.0  -0.6584
  O  O357  1  0.897600  0.444000  0.538000  1.0  -0.7604
  O  O358  1  0.104400  0.360000  0.721900  1.0  -0.6916
  O  O359  1  0.005700  0.278000  0.602000  1.0  -0.7146
  O  O360  1  0.005300  0.447700  0.598800  1.0  -0.6796
  O  O361  1  0.038000  0.289000  0.766000  1.0  -0.3861
  O  O362  1  0.840000  0.360000  0.569800  1.0  -0.7303
  O  O363  1  0.034000  0.158000  0.706000  1.0  -0.6947
  O  O364  1  0.923000  0.160000  0.639000  1.0  -0.6877
  O  O365  1  0.134700  0.244000  0.828000  1.0  -0.6769
  O  O366  1  0.051000  0.360000  0.839000  1.0  -0.4089
  O  O367  1  0.960600  0.447000  0.728000  1.0  -0.6624
  O  O368  1  0.015900  0.365000  0.701000  1.0  -0.3393
  O  O369  1  0.556300  0.349000  0.921500  1.0  -0.6527
  O  O370  1  0.635000  0.530800  0.117800  1.0  -0.5843
  O  O371  1  0.611400  0.613800  0.283700  1.0  -0.7583
  O  O372  1  0.777000  0.154900  0.204800  1.0  -0.636
  O  O373  1  0.479300  0.277600  0.883300  1.0  -0.7054
  O  O374  1  0.676300  0.405000  0.129000  1.0  -0.7205
  O  O375  1  0.744900  0.266000  0.124600  1.0  -0.6414
  O  O376  1  0.646700  0.548000  0.397400  1.0  -0.7094
  O  O377  1  0.531300  0.063000  0.703800  1.0  -0.8426
  O  O378  1  0.397600  0.781100  0.541100  1.0  -0.7445
  O  O379  1  0.426300  0.066000  0.645000  1.0  -0.7567
  O  O380  1  0.632700  0.990000  0.829000  1.0  -0.6584
  O  O381  1  0.397600  0.944000  0.538000  1.0  -0.7604
  O  O382  1  0.604400  0.860000  0.721900  1.0  -0.6916
  O  O383  1  0.505700  0.778000  0.602000  1.0  -0.7146
  O  O384  1  0.505300  0.947700  0.598800  1.0  -0.6796
  O  O385  1  0.538000  0.789000  0.766000  1.0  -0.3861
  O  O386  1  0.340000  0.860000  0.569800  1.0  -0.7303
  O  O387  1  0.534000  0.658000  0.706000  1.0  -0.6947
  O  O388  1  0.423000  0.660000  0.639000  1.0  -0.6877
  O  O389  1  0.634700  0.744000  0.828000  1.0  -0.6769
  O  O390  1  0.551000  0.860000  0.839000  1.0  -0.4089
  O  O391  1  0.460600  0.947000  0.728000  1.0  -0.6624
  O  O392  1  0.515900  0.865000  0.701000  1.0  -0.3393
  O  O393  1  0.943700  0.849000  0.578500  1.0  -0.6516
  O  O394  1  0.865000  0.030800  0.382200  1.0  -0.5846
  O  O395  1  0.888600  0.113800  0.216300  1.0  -0.76
  O  O396  1  0.723000  0.654900  0.295200  1.0  -0.6351
  O  O397  1  0.020700  0.777600  0.616700  1.0  -0.705
  O  O398  1  0.823700  0.905000  0.371000  1.0  -0.7177
  O  O399  1  0.755100  0.766000  0.375400  1.0  -0.6427
  O  O400  1  0.853300  0.048000  0.102600  1.0  -0.7083
  O  O401  1  0.968700  0.563000  0.796200  1.0  -0.842
  O  O402  1  0.102400  0.281100  0.958900  1.0  -0.7478
  O  O403  1  0.073700  0.566000  0.855000  1.0  -0.7559
  O  O404  1  0.867300  0.490000  0.671000  1.0  -0.6594
  O  O405  1  0.102400  0.444000  0.962000  1.0  -0.7581
  O  O406  1  0.895600  0.360000  0.778100  1.0  -0.6927
  O  O407  1  0.994300  0.278000  0.898000  1.0  -0.7206
  O  O408  1  0.994700  0.447700  0.901200  1.0  -0.6802
  O  O409  1  0.962000  0.289000  0.734000  1.0  -0.388
  O  O410  1  0.160000  0.360000  0.930200  1.0  -0.7291
  O  O411  1  0.966000  0.158000  0.794000  1.0  -0.6959
  O  O412  1  0.077000  0.160000  0.861000  1.0  -0.6884
  O  O413  1  0.865300  0.244000  0.672000  1.0  -0.6748
  O  O414  1  0.949000  0.360000  0.661000  1.0  -0.4081
  O  O415  1  0.039400  0.447000  0.772000  1.0  -0.6606
  O  O416  1  0.984100  0.365000  0.799000  1.0  -0.3467
  O  O417  1  0.443700  0.349000  0.578500  1.0  -0.6516
  O  O418  1  0.365000  0.530800  0.382200  1.0  -0.5846
  O  O419  1  0.388600  0.613800  0.216300  1.0  -0.76
  O  O420  1  0.223000  0.154900  0.295200  1.0  -0.6351
  O  O421  1  0.520700  0.277600  0.616700  1.0  -0.705
  O  O422  1  0.323700  0.405000  0.371000  1.0  -0.7177
  O  O423  1  0.255100  0.266000  0.375400  1.0  -0.6427
  O  O424  1  0.353300  0.548000  0.102600  1.0  -0.7083
  O  O425  1  0.468700  0.063000  0.796200  1.0  -0.842
  O  O426  1  0.602400  0.781100  0.958900  1.0  -0.7478
  O  O427  1  0.573700  0.066000  0.855000  1.0  -0.7559
  O  O428  1  0.367300  0.990000  0.671000  1.0  -0.6594
  O  O429  1  0.602400  0.944000  0.962000  1.0  -0.7581
  O  O430  1  0.395600  0.860000  0.778100  1.0  -0.6927
  O  O431  1  0.494300  0.778000  0.898000  1.0  -0.7206
  O  O432  1  0.494700  0.947700  0.901200  1.0  -0.6802
  O  O433  1  0.462000  0.789000  0.734000  1.0  -0.388
  O  O434  1  0.660000  0.860000  0.930200  1.0  -0.7291
  O  O435  1  0.466000  0.658000  0.794000  1.0  -0.6959
  O  O436  1  0.577000  0.660000  0.861000  1.0  -0.6884
  O  O437  1  0.365300  0.744000  0.672000  1.0  -0.6748
  O  O438  1  0.449000  0.860000  0.661000  1.0  -0.4081
  O  O439  1  0.539400  0.947000  0.772000  1.0  -0.6606
  O  O440  1  0.484100  0.865000  0.799000  1.0  -0.3467
  O  O441  1  0.000000  0.301000  0.250000  1.0  -0.7935
  O  O442  1  0.000000  0.960000  0.250000  1.0  -0.7579
  O  O443  1  0.500000  0.801000  0.250000  1.0  -0.7935
  O  O444  1  0.500000  0.460000  0.250000  1.0  -0.7579
  O  O445  1  0.000000  0.699000  0.750000  1.0  -0.7933
  O  O446  1  0.000000  0.040000  0.750000  1.0  -0.7585
  O  O447  1  0.500000  0.199000  0.750000  1.0  -0.7933
  O  O448  1  0.500000  0.540000  0.750000  1.0  -0.7585
