# generated using pymatgen
data_ErH3C7NO4
_symmetry_space_group_name_H-M   'P 1'
_cell_length_a   21.78100000
_cell_length_b   21.78100000
_cell_length_c   16.10100000
_cell_angle_alpha   90.00000000
_cell_angle_beta   90.00000000
_cell_angle_gamma   90.00000000
_symmetry_Int_Tables_number   1
_chemical_formula_structural   ErH3C7NO4
_chemical_formula_sum   'Er16 H48 C112 N16 O64'
_cell_volume   7638.50698406
_cell_formula_units_Z   16
loop_
 _symmetry_equiv_pos_site_id
 _symmetry_equiv_pos_as_xyz
  1  'x, y, z'
loop_
 _atom_site_type_symbol
 _atom_site_label
 _atom_site_symmetry_multiplicity
 _atom_site_fract_x
 _atom_site_fract_y
 _atom_site_fract_z
 _atom_site_occupancy
 _atom_site_charge
  Er  Er1  1  0.883350  0.416200  0.123960  1.0  1.557
  Er  Er2  1  0.383350  0.916200  0.623960  1.0  1.557
  Er  Er3  1  0.616650  0.583800  0.623960  1.0  1.5565
  Er  Er4  1  0.116650  0.083800  0.123960  1.0  1.5565
  Er  Er5  1  0.333800  0.133350  0.373960  1.0  1.5559
  Er  Er6  1  0.833800  0.633350  0.873960  1.0  1.5559
  Er  Er7  1  0.166200  0.866650  0.873960  1.0  1.5568
  Er  Er8  1  0.666200  0.366650  0.373960  1.0  1.5568
  Er  Er9  1  0.116650  0.583800  0.876040  1.0  1.5566
  Er  Er10  1  0.616650  0.083800  0.376040  1.0  1.5566
  Er  Er11  1  0.383350  0.416200  0.376040  1.0  1.5577
  Er  Er12  1  0.883350  0.916200  0.876040  1.0  1.5577
  Er  Er13  1  0.666200  0.866650  0.626040  1.0  1.5573
  Er  Er14  1  0.166200  0.366650  0.126040  1.0  1.5573
  Er  Er15  1  0.833800  0.133350  0.126040  1.0  1.5567
  Er  Er16  1  0.333800  0.633350  0.626040  1.0  1.5567
  H  H17  1  0.682400  0.481200  0.081800  1.0  0.1345
  H  H18  1  0.579500  0.510800  0.069600  1.0  0.13
  H  H19  1  0.510200  0.477800  0.169800  1.0  0.1409
  H  H20  1  0.182400  0.981200  0.581800  1.0  0.1345
  H  H21  1  0.079500  0.010800  0.569600  1.0  0.13
  H  H22  1  0.010200  0.977800  0.669800  1.0  0.1409
  H  H23  1  0.817600  0.518800  0.581800  1.0  0.1345
  H  H24  1  0.920500  0.489200  0.569600  1.0  0.1307
  H  H25  1  0.989800  0.522200  0.669800  1.0  0.1401
  H  H26  1  0.317600  0.018800  0.081800  1.0  0.1345
  H  H27  1  0.420500  0.989200  0.069600  1.0  0.1307
  H  H28  1  0.489800  0.022200  0.169800  1.0  0.1401
  H  H29  1  0.268800  0.932400  0.331800  1.0  0.1351
  H  H30  1  0.239200  0.829500  0.319600  1.0  0.1295
  H  H31  1  0.272200  0.760200  0.419800  1.0  0.1408
  H  H32  1  0.768800  0.432400  0.831800  1.0  0.1351
  H  H33  1  0.739200  0.329500  0.819600  1.0  0.1295
  H  H34  1  0.772200  0.260200  0.919800  1.0  0.1408
  H  H35  1  0.231200  0.067600  0.831800  1.0  0.1352
  H  H36  1  0.260800  0.170500  0.819600  1.0  0.1305
  H  H37  1  0.227800  0.239800  0.919800  1.0  0.1418
  H  H38  1  0.731200  0.567600  0.331800  1.0  0.1352
  H  H39  1  0.760800  0.670500  0.319600  1.0  0.1305
  H  H40  1  0.727800  0.739800  0.419800  1.0  0.1418
  H  H41  1  0.317600  0.518800  0.918200  1.0  0.1352
  H  H42  1  0.420500  0.489200  0.930400  1.0  0.131
  H  H43  1  0.489800  0.522200  0.830200  1.0  0.1406
  H  H44  1  0.817600  0.018800  0.418200  1.0  0.1352
  H  H45  1  0.920500  0.989200  0.430400  1.0  0.131
  H  H46  1  0.989800  0.022200  0.330200  1.0  0.1406
  H  H47  1  0.182400  0.481200  0.418200  1.0  0.1353
  H  H48  1  0.079500  0.510800  0.430400  1.0  0.1308
  H  H49  1  0.010200  0.477800  0.330200  1.0  0.141
  H  H50  1  0.682400  0.981200  0.918200  1.0  0.1353
  H  H51  1  0.579500  0.010800  0.930400  1.0  0.1308
  H  H52  1  0.510200  0.977800  0.830200  1.0  0.141
  H  H53  1  0.731200  0.067600  0.668200  1.0  0.1355
  H  H54  1  0.760800  0.170500  0.680400  1.0  0.1302
  H  H55  1  0.727800  0.239800  0.580200  1.0  0.1419
  H  H56  1  0.231200  0.567600  0.168200  1.0  0.1355
  H  H57  1  0.260800  0.670500  0.180400  1.0  0.1302
  H  H58  1  0.227800  0.739800  0.080200  1.0  0.1419
  H  H59  1  0.768800  0.932400  0.168200  1.0  0.1353
  H  H60  1  0.739200  0.829500  0.180400  1.0  0.13
  H  H61  1  0.772200  0.760200  0.080200  1.0  0.1414
  H  H62  1  0.268800  0.432400  0.668200  1.0  0.1353
  H  H63  1  0.239200  0.329500  0.680400  1.0  0.13
  H  H64  1  0.272200  0.260200  0.580200  1.0  0.1414
  C  C65  1  0.671600  0.436700  0.190100  1.0  0.0985
  C  C66  1  0.653900  0.470000  0.122000  1.0  -0.1064
  C  C67  1  0.592500  0.486900  0.114100  1.0  -0.071
  C  C68  1  0.551500  0.467400  0.173700  1.0  -0.097
  C  C69  1  0.572400  0.431900  0.239600  1.0  0.1211
  C  C70  1  0.737100  0.416200  0.205700  1.0  0.6926
  C  C71  1  0.532200  0.405200  0.305800  1.0  0.7253
  C  C72  1  0.171600  0.936700  0.690100  1.0  0.0985
  C  C73  1  0.153900  0.970000  0.622000  1.0  -0.1064
  C  C74  1  0.092500  0.986900  0.614100  1.0  -0.071
  C  C75  1  0.051500  0.967400  0.673700  1.0  -0.097
  C  C76  1  0.072400  0.931900  0.739600  1.0  0.1211
  C  C77  1  0.237100  0.916200  0.705700  1.0  0.6926
  C  C78  1  0.032200  0.905200  0.805800  1.0  0.7253
  C  C79  1  0.828400  0.563300  0.690100  1.0  0.0988
  C  C80  1  0.846100  0.530000  0.622000  1.0  -0.1045
  C  C81  1  0.907500  0.513100  0.614100  1.0  -0.0715
  C  C82  1  0.948500  0.532600  0.673700  1.0  -0.0963
  C  C83  1  0.927600  0.568100  0.739600  1.0  0.1214
  C  C84  1  0.762900  0.583800  0.705700  1.0  0.6926
  C  C85  1  0.967800  0.594800  0.805800  1.0  0.7245
  C  C86  1  0.328400  0.063300  0.190100  1.0  0.0988
  C  C87  1  0.346100  0.030000  0.122000  1.0  -0.1045
  C  C88  1  0.407500  0.013100  0.114100  1.0  -0.0715
  C  C89  1  0.448500  0.032600  0.173700  1.0  -0.0963
  C  C90  1  0.427600  0.068100  0.239600  1.0  0.1214
  C  C91  1  0.262900  0.083800  0.205700  1.0  0.6926
  C  C92  1  0.467800  0.094800  0.305800  1.0  0.7245
  C  C93  1  0.313300  0.921600  0.440100  1.0  0.0982
  C  C94  1  0.280000  0.903900  0.372000  1.0  -0.1061
  C  C95  1  0.263100  0.842500  0.364100  1.0  -0.0708
  C  C96  1  0.282600  0.801500  0.423700  1.0  -0.097
  C  C97  1  0.318100  0.822400  0.489600  1.0  0.1211
  C  C98  1  0.333800  0.987100  0.455700  1.0  0.6938
  C  C99  1  0.344800  0.782200  0.555800  1.0  0.7249
  C  C100  1  0.813300  0.421600  0.940100  1.0  0.0982
  C  C101  1  0.780000  0.403900  0.872000  1.0  -0.1061
  C  C102  1  0.763100  0.342500  0.864100  1.0  -0.0708
  C  C103  1  0.782600  0.301500  0.923700  1.0  -0.097
  C  C104  1  0.818100  0.322400  0.989600  1.0  0.1211
  C  C105  1  0.833800  0.487100  0.955700  1.0  0.6938
  C  C106  1  0.844800  0.282200  0.055800  1.0  0.7249
  C  C107  1  0.186700  0.078400  0.940100  1.0  0.0987
  C  C108  1  0.220000  0.096100  0.872000  1.0  -0.1064
  C  C109  1  0.236900  0.157500  0.864100  1.0  -0.0715
  C  C110  1  0.217400  0.198500  0.923700  1.0  -0.0975
  C  C111  1  0.181900  0.177600  0.989600  1.0  0.1208
  C  C112  1  0.166200  0.012900  0.955700  1.0  0.6946
  C  C113  1  0.155200  0.217800  0.055800  1.0  0.7228
  C  C114  1  0.686700  0.578400  0.440100  1.0  0.0987
  C  C115  1  0.720000  0.596100  0.372000  1.0  -0.1064
  C  C116  1  0.736900  0.657500  0.364100  1.0  -0.0715
  C  C117  1  0.717400  0.698500  0.423700  1.0  -0.0975
  C  C118  1  0.681900  0.677600  0.489600  1.0  0.1208
  C  C119  1  0.666200  0.512900  0.455700  1.0  0.6946
  C  C120  1  0.655200  0.717800  0.555800  1.0  0.7228
  C  C121  1  0.328400  0.563300  0.809900  1.0  0.099
  C  C122  1  0.346100  0.530000  0.878000  1.0  -0.1044
  C  C123  1  0.407500  0.513100  0.885900  1.0  -0.0727
  C  C124  1  0.448500  0.532600  0.826300  1.0  -0.0959
  C  C125  1  0.427600  0.568100  0.760400  1.0  0.1218
  C  C126  1  0.262900  0.583800  0.794300  1.0  0.6922
  C  C127  1  0.467800  0.594800  0.694200  1.0  0.7251
  C  C128  1  0.828400  0.063300  0.309900  1.0  0.099
  C  C129  1  0.846100  0.030000  0.378000  1.0  -0.1044
  C  C130  1  0.907500  0.013100  0.385900  1.0  -0.0727
  C  C131  1  0.948500  0.032600  0.326300  1.0  -0.0959
  C  C132  1  0.927600  0.068100  0.260400  1.0  0.1218
  C  C133  1  0.762900  0.083800  0.294300  1.0  0.6922
  C  C134  1  0.967800  0.094800  0.194200  1.0  0.7251
  C  C135  1  0.171600  0.436700  0.309900  1.0  0.0986
  C  C136  1  0.153900  0.470000  0.378000  1.0  -0.1056
  C  C137  1  0.092500  0.486900  0.385900  1.0  -0.0744
  C  C138  1  0.051500  0.467400  0.326300  1.0  -0.0971
  C  C139  1  0.072400  0.431900  0.260400  1.0  0.1204
  C  C140  1  0.237100  0.416200  0.294300  1.0  0.692
  C  C141  1  0.032200  0.405200  0.194200  1.0  0.726
  C  C142  1  0.671600  0.936700  0.809900  1.0  0.0986
  C  C143  1  0.653900  0.970000  0.878000  1.0  -0.1056
  C  C144  1  0.592500  0.986900  0.885900  1.0  -0.0744
  C  C145  1  0.551500  0.967400  0.826300  1.0  -0.0971
  C  C146  1  0.572400  0.931900  0.760400  1.0  0.1204
  C  C147  1  0.737100  0.916200  0.794300  1.0  0.692
  C  C148  1  0.532200  0.905200  0.694200  1.0  0.726
  C  C149  1  0.686700  0.078400  0.559900  1.0  0.0986
  C  C150  1  0.720000  0.096100  0.628000  1.0  -0.1053
  C  C151  1  0.736900  0.157500  0.635900  1.0  -0.0731
  C  C152  1  0.717400  0.198500  0.576300  1.0  -0.0967
  C  C153  1  0.681900  0.177600  0.510400  1.0  0.1208
  C  C154  1  0.666200  0.012900  0.544300  1.0  0.6941
  C  C155  1  0.655200  0.217800  0.444200  1.0  0.7251
  C  C156  1  0.186700  0.578400  0.059900  1.0  0.0986
  C  C157  1  0.220000  0.596100  0.128000  1.0  -0.1053
  C  C158  1  0.236900  0.657500  0.135900  1.0  -0.0731
  C  C159  1  0.217400  0.698500  0.076300  1.0  -0.0967
  C  C160  1  0.181900  0.677600  0.010400  1.0  0.1208
  C  C161  1  0.166200  0.512900  0.044300  1.0  0.6941
  C  C162  1  0.155200  0.717800  0.944200  1.0  0.7251
  C  C163  1  0.813300  0.921600  0.059900  1.0  0.0984
  C  C164  1  0.780000  0.903900  0.128000  1.0  -0.1068
  C  C165  1  0.763100  0.842500  0.135900  1.0  -0.0738
  C  C166  1  0.782600  0.801500  0.076300  1.0  -0.0968
  C  C167  1  0.818100  0.822400  0.010400  1.0  0.1206
  C  C168  1  0.833800  0.987100  0.044300  1.0  0.6934
  C  C169  1  0.844800  0.782200  0.944200  1.0  0.7239
  C  C170  1  0.313300  0.421600  0.559900  1.0  0.0984
  C  C171  1  0.280000  0.403900  0.628000  1.0  -0.1068
  C  C172  1  0.263100  0.342500  0.635900  1.0  -0.0738
  C  C173  1  0.282600  0.301500  0.576300  1.0  -0.0968
  C  C174  1  0.318100  0.322400  0.510400  1.0  0.1206
  C  C175  1  0.333800  0.487100  0.544300  1.0  0.6934
  C  C176  1  0.344800  0.282200  0.444200  1.0  0.7239
  N  N177  1  0.631500  0.418500  0.247800  1.0  -0.442
  N  N178  1  0.131500  0.918500  0.747800  1.0  -0.442
  N  N179  1  0.868500  0.581500  0.747800  1.0  -0.4428
  N  N180  1  0.368500  0.081500  0.247800  1.0  -0.4428
  N  N181  1  0.331500  0.881500  0.497800  1.0  -0.4385
  N  N182  1  0.831500  0.381500  0.997800  1.0  -0.4385
  N  N183  1  0.168500  0.118500  0.997800  1.0  -0.4422
  N  N184  1  0.668500  0.618500  0.497800  1.0  -0.4422
  N  N185  1  0.368500  0.581500  0.752200  1.0  -0.443
  N  N186  1  0.868500  0.081500  0.252200  1.0  -0.443
  N  N187  1  0.131500  0.418500  0.252200  1.0  -0.4421
  N  N188  1  0.631500  0.918500  0.752200  1.0  -0.4421
  N  N189  1  0.668500  0.118500  0.502200  1.0  -0.4425
  N  N190  1  0.168500  0.618500  0.002200  1.0  -0.4425
  N  N191  1  0.831500  0.881500  0.002200  1.0  -0.4382
  N  N192  1  0.331500  0.381500  0.502200  1.0  -0.4382
  O  O193  1  0.777000  0.426800  0.152700  1.0  -0.7068
  O  O194  1  0.745100  0.389100  0.274500  1.0  -0.718
  O  O195  1  0.475700  0.414000  0.302600  1.0  -0.787
  O  O196  1  0.559300  0.373800  0.361600  1.0  -0.6754
  O  O197  1  0.277000  0.926800  0.652700  1.0  -0.7068
  O  O198  1  0.245100  0.889100  0.774500  1.0  -0.718
  O  O199  1  0.975700  0.914000  0.802600  1.0  -0.787
  O  O200  1  0.059300  0.873800  0.861600  1.0  -0.6754
  O  O201  1  0.723000  0.573200  0.652700  1.0  -0.7076
  O  O202  1  0.754900  0.610900  0.774500  1.0  -0.7198
  O  O203  1  0.024300  0.586000  0.802600  1.0  -0.7868
  O  O204  1  0.940700  0.626200  0.861600  1.0  -0.6757
  O  O205  1  0.223000  0.073200  0.152700  1.0  -0.7076
  O  O206  1  0.254900  0.110900  0.274500  1.0  -0.7198
  O  O207  1  0.524300  0.086000  0.302600  1.0  -0.7868
  O  O208  1  0.440700  0.126200  0.361600  1.0  -0.6757
  O  O209  1  0.323200  0.027000  0.402700  1.0  -0.7034
  O  O210  1  0.360900  0.995100  0.524500  1.0  -0.7201
  O  O211  1  0.336000  0.725700  0.552600  1.0  -0.782
  O  O212  1  0.376200  0.809300  0.611600  1.0  -0.6733
  O  O213  1  0.823200  0.527000  0.902700  1.0  -0.7034
  O  O214  1  0.860900  0.495100  0.024500  1.0  -0.7201
  O  O215  1  0.836000  0.225700  0.052600  1.0  -0.782
  O  O216  1  0.876200  0.309300  0.111600  1.0  -0.6733
  O  O217  1  0.176800  0.973000  0.902700  1.0  -0.7042
  O  O218  1  0.139100  0.004900  0.024500  1.0  -0.7194
  O  O219  1  0.164000  0.274300  0.052600  1.0  -0.7828
  O  O220  1  0.123800  0.190700  0.111600  1.0  -0.6723
  O  O221  1  0.676800  0.473000  0.402700  1.0  -0.7042
  O  O222  1  0.639100  0.504900  0.524500  1.0  -0.7194
  O  O223  1  0.664000  0.774300  0.552600  1.0  -0.7828
  O  O224  1  0.623800  0.690700  0.611600  1.0  -0.6723
  O  O225  1  0.223000  0.573200  0.847300  1.0  -0.7083
  O  O226  1  0.254900  0.610900  0.725500  1.0  -0.7206
  O  O227  1  0.524300  0.586000  0.697400  1.0  -0.7865
  O  O228  1  0.440700  0.626200  0.638400  1.0  -0.6783
  O  O229  1  0.723000  0.073200  0.347300  1.0  -0.7083
  O  O230  1  0.754900  0.110900  0.225500  1.0  -0.7206
  O  O231  1  0.024300  0.086000  0.197400  1.0  -0.7865
  O  O232  1  0.940700  0.126200  0.138400  1.0  -0.6783
  O  O233  1  0.277000  0.426800  0.347300  1.0  -0.7077
  O  O234  1  0.245100  0.389100  0.225500  1.0  -0.717
  O  O235  1  0.975700  0.414000  0.197400  1.0  -0.7866
  O  O236  1  0.059300  0.373800  0.138400  1.0  -0.6787
  O  O237  1  0.777000  0.926800  0.847300  1.0  -0.7077
  O  O238  1  0.745100  0.889100  0.725500  1.0  -0.717
  O  O239  1  0.475700  0.914000  0.697400  1.0  -0.7866
  O  O240  1  0.559300  0.873800  0.638400  1.0  -0.6787
  O  O241  1  0.676800  0.973000  0.597300  1.0  -0.7045
  O  O242  1  0.639100  0.004900  0.475500  1.0  -0.7185
  O  O243  1  0.664000  0.274300  0.447400  1.0  -0.7819
  O  O244  1  0.623800  0.190700  0.388400  1.0  -0.6736
  O  O245  1  0.176800  0.473000  0.097300  1.0  -0.7045
  O  O246  1  0.139100  0.504900  0.975500  1.0  -0.7185
  O  O247  1  0.164000  0.774300  0.947400  1.0  -0.7819
  O  O248  1  0.123800  0.690700  0.888400  1.0  -0.6736
  O  O249  1  0.823200  0.027000  0.097300  1.0  -0.7038
  O  O250  1  0.860900  0.995100  0.975500  1.0  -0.7201
  O  O251  1  0.836000  0.725700  0.947400  1.0  -0.7813
  O  O252  1  0.876200  0.809300  0.888400  1.0  -0.6745
  O  O253  1  0.323200  0.527000  0.597300  1.0  -0.7038
  O  O254  1  0.360900  0.495100  0.475500  1.0  -0.7201
  O  O255  1  0.336000  0.225700  0.447400  1.0  -0.7813
  O  O256  1  0.376200  0.309300  0.388400  1.0  -0.6745
