# generated using pymatgen
data_TbH3C7NO4
_symmetry_space_group_name_H-M   'P 1'
_cell_length_a   21.87880000
_cell_length_b   21.87880000
_cell_length_c   16.14430000
_cell_angle_alpha   90.00000000
_cell_angle_beta   90.00000000
_cell_angle_gamma   90.00000000
_symmetry_Int_Tables_number   1
_chemical_formula_structural   TbH3C7NO4
_chemical_formula_sum   'Tb16 H48 C112 N16 O64'
_cell_volume   7727.98402769
_cell_formula_units_Z   16
loop_
 _symmetry_equiv_pos_site_id
 _symmetry_equiv_pos_as_xyz
  1  'x, y, z'
loop_
 _atom_site_type_symbol
 _atom_site_label
 _atom_site_symmetry_multiplicity
 _atom_site_fract_x
 _atom_site_fract_y
 _atom_site_fract_z
 _atom_site_occupancy
 _atom_site_charge
  Tb  Tb1  1  0.666990  0.134170  0.373230  1.0  2.0669
  Tb  Tb2  1  0.166990  0.634170  0.873230  1.0  2.0669
  Tb  Tb3  1  0.833010  0.865830  0.873230  1.0  2.0672
  Tb  Tb4  1  0.333010  0.365830  0.373230  1.0  2.0672
  Tb  Tb5  1  0.615830  0.916990  0.623230  1.0  2.0672
  Tb  Tb6  1  0.115830  0.416990  0.123230  1.0  2.0672
  Tb  Tb7  1  0.884170  0.083010  0.123230  1.0  2.0679
  Tb  Tb8  1  0.384170  0.583010  0.623230  1.0  2.0679
  Tb  Tb9  1  0.333010  0.865830  0.626770  1.0  2.0659
  Tb  Tb10  1  0.833010  0.365830  0.126770  1.0  2.0659
  Tb  Tb11  1  0.166990  0.134170  0.126770  1.0  2.0669
  Tb  Tb12  1  0.666990  0.634170  0.626770  1.0  2.0669
  Tb  Tb13  1  0.384170  0.083010  0.376770  1.0  2.067
  Tb  Tb14  1  0.884170  0.583010  0.876770  1.0  2.067
  Tb  Tb15  1  0.115830  0.916990  0.876770  1.0  2.0668
  Tb  Tb16  1  0.615830  0.416990  0.376770  1.0  2.0668
  H  H17  1  0.510800  0.022600  0.167400  1.0  0.1148
  H  H18  1  0.579000  0.991000  0.068400  1.0  0.0983
  H  H19  1  0.682100  0.017700  0.081500  1.0  0.1034
  H  H20  1  0.010800  0.522600  0.667400  1.0  0.1148
  H  H21  1  0.079000  0.491000  0.568400  1.0  0.0983
  H  H22  1  0.182100  0.517700  0.581500  1.0  0.1034
  H  H23  1  0.989200  0.977400  0.667400  1.0  0.114
  H  H24  1  0.921000  0.009000  0.568400  1.0  0.0988
  H  H25  1  0.817900  0.982300  0.581500  1.0  0.1035
  H  H26  1  0.489200  0.477400  0.167400  1.0  0.114
  H  H27  1  0.421000  0.509000  0.068400  1.0  0.0988
  H  H28  1  0.317900  0.482300  0.081500  1.0  0.1035
  H  H29  1  0.727400  0.760800  0.417400  1.0  0.1143
  H  H30  1  0.759000  0.829000  0.318400  1.0  0.099
  H  H31  1  0.732300  0.932100  0.331500  1.0  0.104
  H  H32  1  0.227400  0.260800  0.917400  1.0  0.1143
  H  H33  1  0.259000  0.329000  0.818400  1.0  0.099
  H  H34  1  0.232300  0.432100  0.831500  1.0  0.104
  H  H35  1  0.772600  0.239200  0.917400  1.0  0.1139
  H  H36  1  0.741000  0.171000  0.818400  1.0  0.0979
  H  H37  1  0.767700  0.067900  0.831500  1.0  0.1039
  H  H38  1  0.272600  0.739200  0.417400  1.0  0.1139
  H  H39  1  0.241000  0.671000  0.318400  1.0  0.0979
  H  H40  1  0.267700  0.567900  0.331500  1.0  0.1039
  H  H41  1  0.489200  0.977400  0.832600  1.0  0.1139
  H  H42  1  0.421000  0.009000  0.931600  1.0  0.099
  H  H43  1  0.317900  0.982300  0.918500  1.0  0.1039
  H  H44  1  0.989200  0.477400  0.332600  1.0  0.1139
  H  H45  1  0.921000  0.509000  0.431600  1.0  0.099
  H  H46  1  0.817900  0.482300  0.418500  1.0  0.1038
  H  H47  1  0.010800  0.022600  0.332600  1.0  0.1149
  H  H48  1  0.079000  0.991000  0.431600  1.0  0.0986
  H  H49  1  0.182100  0.017700  0.418500  1.0  0.1037
  H  H50  1  0.510800  0.522600  0.832600  1.0  0.1149
  H  H51  1  0.579000  0.491000  0.931600  1.0  0.0986
  H  H52  1  0.682100  0.517700  0.918500  1.0  0.1037
  H  H53  1  0.272600  0.239200  0.582600  1.0  0.1137
  H  H54  1  0.241000  0.171000  0.681600  1.0  0.0982
  H  H55  1  0.267700  0.067900  0.668500  1.0  0.1046
  H  H56  1  0.772600  0.739200  0.082600  1.0  0.1137
  H  H57  1  0.741000  0.671000  0.181600  1.0  0.0982
  H  H58  1  0.767700  0.567900  0.168500  1.0  0.1046
  H  H59  1  0.227400  0.760800  0.082600  1.0  0.1144
  H  H60  1  0.259000  0.829000  0.181600  1.0  0.0987
  H  H61  1  0.232300  0.932100  0.168500  1.0  0.1038
  H  H62  1  0.727400  0.260800  0.582600  1.0  0.1144
  H  H63  1  0.759000  0.329000  0.681600  1.0  0.0987
  H  H64  1  0.732300  0.432100  0.668500  1.0  0.1038
  C  C65  1  0.573000  0.068500  0.237900  1.0  0.109
  C  C66  1  0.551900  0.033000  0.171400  1.0  -0.1356
  C  C67  1  0.592100  0.014200  0.113200  1.0  -0.1205
  C  C68  1  0.653700  0.030100  0.121000  1.0  -0.1432
  C  C69  1  0.671300  0.064100  0.187300  1.0  0.0805
  C  C70  1  0.532900  0.094200  0.303400  1.0  0.6832
  C  C71  1  0.737000  0.083300  0.203700  1.0  0.6588
  C  C72  1  0.073000  0.568500  0.737900  1.0  0.109
  C  C73  1  0.051900  0.533000  0.671400  1.0  -0.1356
  C  C74  1  0.092100  0.514200  0.613200  1.0  -0.1205
  C  C75  1  0.153700  0.530100  0.621000  1.0  -0.1432
  C  C76  1  0.171300  0.564100  0.687300  1.0  0.0805
  C  C77  1  0.032900  0.594200  0.803400  1.0  0.6832
  C  C78  1  0.237000  0.583300  0.703700  1.0  0.6588
  C  C79  1  0.927000  0.931500  0.737900  1.0  0.1096
  C  C80  1  0.948100  0.967000  0.671400  1.0  -0.1369
  C  C81  1  0.907900  0.985800  0.613200  1.0  -0.122
  C  C82  1  0.846300  0.969900  0.621000  1.0  -0.1424
  C  C83  1  0.828700  0.935900  0.687300  1.0  0.0802
  C  C84  1  0.967100  0.905800  0.803400  1.0  0.6844
  C  C85  1  0.763000  0.916700  0.703700  1.0  0.6596
  C  C86  1  0.427000  0.431500  0.237900  1.0  0.1096
  C  C87  1  0.448100  0.467000  0.171400  1.0  -0.1369
  C  C88  1  0.407900  0.485800  0.113200  1.0  -0.122
  C  C89  1  0.346300  0.469900  0.121000  1.0  -0.1424
  C  C90  1  0.328700  0.435900  0.187300  1.0  0.0802
  C  C91  1  0.467100  0.405800  0.303400  1.0  0.6844
  C  C92  1  0.263000  0.416700  0.203700  1.0  0.6596
  C  C93  1  0.681500  0.823000  0.487900  1.0  0.1083
  C  C94  1  0.717000  0.801900  0.421400  1.0  -0.1386
  C  C95  1  0.735800  0.842100  0.363200  1.0  -0.1201
  C  C96  1  0.719900  0.903700  0.371000  1.0  -0.1435
  C  C97  1  0.685900  0.921300  0.437300  1.0  0.0821
  C  C98  1  0.655800  0.782900  0.553400  1.0  0.6849
  C  C99  1  0.666667  0.987000  0.453700  1.0  0.6621
  C  C100  1  0.181500  0.323000  0.987900  1.0  0.1083
  C  C101  1  0.217000  0.301900  0.921400  1.0  -0.1386
  C  C102  1  0.235800  0.342100  0.863200  1.0  -0.1201
  C  C103  1  0.219900  0.403700  0.871000  1.0  -0.1433
  C  C104  1  0.185900  0.421300  0.937300  1.0  0.0818
  C  C105  1  0.155800  0.282900  0.053400  1.0  0.6849
  C  C106  1  0.166700  0.487000  0.953700  1.0  0.6588
  C  C107  1  0.818500  0.177000  0.987900  1.0  0.109
  C  C108  1  0.783000  0.198100  0.921400  1.0  -0.1391
  C  C109  1  0.764200  0.157900  0.863200  1.0  -0.12
  C  C110  1  0.780100  0.096300  0.871000  1.0  -0.143
  C  C111  1  0.814100  0.078700  0.937300  1.0  0.0818
  C  C112  1  0.844200  0.217100  0.053400  1.0  0.6841
  C  C113  1  0.833300  0.013000  0.953700  1.0  0.6599
  C  C114  1  0.318500  0.677000  0.487900  1.0  0.109
  C  C115  1  0.283000  0.698100  0.421400  1.0  -0.1391
  C  C116  1  0.264200  0.657900  0.363200  1.0  -0.12
  C  C117  1  0.280100  0.596300  0.371000  1.0  -0.1432
  C  C118  1  0.314100  0.578700  0.437300  1.0  0.0821
  C  C119  1  0.344200  0.717100  0.553400  1.0  0.6841
  C  C120  1  0.333333  0.513000  0.453700  1.0  0.6635
  C  C121  1  0.427000  0.931500  0.762100  1.0  0.1102
  C  C122  1  0.448100  0.967000  0.828600  1.0  -0.1367
  C  C123  1  0.407900  0.985800  0.886800  1.0  -0.1228
  C  C124  1  0.346300  0.969900  0.879000  1.0  -0.143
  C  C125  1  0.328700  0.935900  0.812700  1.0  0.0806
  C  C126  1  0.467100  0.905800  0.696600  1.0  0.6866
  C  C127  1  0.263000  0.916700  0.796300  1.0  0.6598
  C  C128  1  0.927000  0.431500  0.262100  1.0  0.1102
  C  C129  1  0.948100  0.467000  0.328600  1.0  -0.1367
  C  C130  1  0.907900  0.485800  0.386800  1.0  -0.1228
  C  C131  1  0.846300  0.469900  0.379000  1.0  -0.143
  C  C132  1  0.828700  0.435900  0.312700  1.0  0.0806
  C  C133  1  0.967100  0.405800  0.196600  1.0  0.6866
  C  C134  1  0.763000  0.416700  0.296300  1.0  0.6598
  C  C135  1  0.073000  0.068500  0.262100  1.0  0.1097
  C  C136  1  0.051900  0.033000  0.328600  1.0  -0.1361
  C  C137  1  0.092100  0.014200  0.386800  1.0  -0.1227
  C  C138  1  0.153700  0.030100  0.379000  1.0  -0.1426
  C  C139  1  0.171300  0.064100  0.312700  1.0  0.0805
  C  C140  1  0.032900  0.094200  0.196600  1.0  0.6876
  C  C141  1  0.237000  0.083300  0.296300  1.0  0.6587
  C  C142  1  0.573000  0.568500  0.762100  1.0  0.1097
  C  C143  1  0.551900  0.533000  0.828600  1.0  -0.1361
  C  C144  1  0.592100  0.514200  0.886800  1.0  -0.1227
  C  C145  1  0.653700  0.530100  0.879000  1.0  -0.1426
  C  C146  1  0.671300  0.564100  0.812700  1.0  0.0805
  C  C147  1  0.532900  0.594200  0.696600  1.0  0.6876
  C  C148  1  0.737000  0.583300  0.796300  1.0  0.6587
  C  C149  1  0.318500  0.177000  0.512100  1.0  0.1093
  C  C150  1  0.283000  0.198100  0.578600  1.0  -0.1388
  C  C151  1  0.264200  0.157900  0.636800  1.0  -0.123
  C  C152  1  0.280100  0.096300  0.629000  1.0  -0.1442
  C  C153  1  0.314100  0.078700  0.562700  1.0  0.0822
  C  C154  1  0.344200  0.217100  0.446600  1.0  0.6874
  C  C155  1  0.333333  0.013000  0.546300  1.0  0.6634
  C  C156  1  0.818500  0.677000  0.012100  1.0  0.1093
  C  C157  1  0.783000  0.698100  0.078600  1.0  -0.1388
  C  C158  1  0.764200  0.657900  0.136800  1.0  -0.123
  C  C159  1  0.780100  0.596300  0.129000  1.0  -0.144
  C  C160  1  0.814100  0.578700  0.062700  1.0  0.0819
  C  C161  1  0.844200  0.717100  0.946600  1.0  0.6874
  C  C162  1  0.833300  0.513000  0.046300  1.0  0.6598
  C  C163  1  0.181500  0.823000  0.012100  1.0  0.1084
  C  C164  1  0.217000  0.801900  0.078600  1.0  -0.1386
  C  C165  1  0.235800  0.842100  0.136800  1.0  -0.1214
  C  C166  1  0.219900  0.903700  0.129000  1.0  -0.1425
  C  C167  1  0.185900  0.921300  0.062700  1.0  0.0819
  C  C168  1  0.155800  0.782900  0.946600  1.0  0.6867
  C  C169  1  0.166700  0.987000  0.046300  1.0  0.6594
  C  C170  1  0.681500  0.323000  0.512100  1.0  0.1084
  C  C171  1  0.717000  0.301900  0.578600  1.0  -0.1386
  C  C172  1  0.735800  0.342100  0.636800  1.0  -0.1214
  C  C173  1  0.719900  0.403700  0.629000  1.0  -0.1426
  C  C174  1  0.685900  0.421300  0.562700  1.0  0.0821
  C  C175  1  0.655800  0.282900  0.446600  1.0  0.6867
  C  C176  1  0.666667  0.487000  0.546300  1.0  0.6627
  N  N177  1  0.631900  0.082400  0.246100  1.0  -0.5142
  N  N178  1  0.131900  0.582400  0.746100  1.0  -0.5142
  N  N179  1  0.868100  0.917600  0.746100  1.0  -0.5138
  N  N180  1  0.368100  0.417600  0.246100  1.0  -0.5138
  N  N181  1  0.667600  0.881900  0.496100  1.0  -0.5127
  N  N182  1  0.167600  0.381900  0.996100  1.0  -0.5126
  N  N183  1  0.832400  0.118100  0.996100  1.0  -0.5097
  N  N184  1  0.332400  0.618100  0.496100  1.0  -0.5097
  N  N185  1  0.368100  0.917600  0.753900  1.0  -0.5168
  N  N186  1  0.868100  0.417600  0.253900  1.0  -0.5168
  N  N187  1  0.131900  0.082400  0.253900  1.0  -0.5147
  N  N188  1  0.631900  0.582400  0.753900  1.0  -0.5147
  N  N189  1  0.332400  0.118100  0.503900  1.0  -0.5114
  N  N190  1  0.832400  0.618100  0.003900  1.0  -0.5114
  N  N191  1  0.167600  0.881900  0.003900  1.0  -0.5134
  N  N192  1  0.667600  0.381900  0.503900  1.0  -0.5134
  O  O193  1  0.776800  0.073200  0.151100  1.0  -0.7338
  O  O194  1  0.745100  0.111700  0.272000  1.0  -0.7532
  O  O195  1  0.559400  0.125800  0.360000  1.0  -0.7085
  O  O196  1  0.476000  0.084700  0.302200  1.0  -0.8147
  O  O197  1  0.276800  0.573200  0.651100  1.0  -0.7338
  O  O198  1  0.245100  0.611700  0.772000  1.0  -0.7532
  O  O199  1  0.059400  0.625800  0.860000  1.0  -0.7085
  O  O200  1  0.976000  0.584700  0.802200  1.0  -0.8147
  O  O201  1  0.723200  0.926800  0.651100  1.0  -0.7337
  O  O202  1  0.754900  0.888300  0.772000  1.0  -0.7526
  O  O203  1  0.940600  0.874200  0.860000  1.0  -0.7049
  O  O204  1  0.024000  0.915300  0.802200  1.0  -0.8158
  O  O205  1  0.223200  0.426800  0.151100  1.0  -0.7337
  O  O206  1  0.254900  0.388300  0.272000  1.0  -0.7526
  O  O207  1  0.440600  0.374200  0.360000  1.0  -0.7049
  O  O208  1  0.524000  0.415300  0.302200  1.0  -0.8158
  O  O209  1  0.676800  0.026800  0.401100  1.0  -0.7288
  O  O210  1  0.638300  0.995100  0.522000  1.0  -0.7544
  O  O211  1  0.624200  0.809400  0.610000  1.0  -0.703
  O  O212  1  0.665300  0.726000  0.552200  1.0  -0.81
  O  O213  1  0.176800  0.526800  0.901100  1.0  -0.7288
  O  O214  1  0.138300  0.495100  0.022000  1.0  -0.7542
  O  O215  1  0.124200  0.309400  0.110000  1.0  -0.703
  O  O216  1  0.165300  0.226000  0.052200  1.0  -0.81
  O  O217  1  0.823200  0.973200  0.901100  1.0  -0.7305
  O  O218  1  0.861700  0.004900  0.022000  1.0  -0.7551
  O  O219  1  0.875800  0.190600  0.110000  1.0  -0.7058
  O  O220  1  0.834700  0.274000  0.052200  1.0  -0.8106
  O  O221  1  0.323200  0.473200  0.401100  1.0  -0.7305
  O  O222  1  0.361700  0.504900  0.522000  1.0  -0.7554
  O  O223  1  0.375800  0.690600  0.610000  1.0  -0.7058
  O  O224  1  0.334700  0.774000  0.552200  1.0  -0.8106
  O  O225  1  0.223200  0.926800  0.848900  1.0  -0.7341
  O  O226  1  0.254900  0.888300  0.728000  1.0  -0.7539
  O  O227  1  0.440600  0.874200  0.640000  1.0  -0.7047
  O  O228  1  0.524000  0.915300  0.697800  1.0  -0.816
  O  O229  1  0.723200  0.426800  0.348900  1.0  -0.7341
  O  O230  1  0.754900  0.388300  0.228000  1.0  -0.7539
  O  O231  1  0.940600  0.374200  0.140000  1.0  -0.7047
  O  O232  1  0.024000  0.415300  0.197800  1.0  -0.816
  O  O233  1  0.276800  0.073200  0.348900  1.0  -0.734
  O  O234  1  0.245100  0.111700  0.228000  1.0  -0.754
  O  O235  1  0.059400  0.125800  0.140000  1.0  -0.7087
  O  O236  1  0.976000  0.084700  0.197800  1.0  -0.8147
  O  O237  1  0.776800  0.573200  0.848900  1.0  -0.734
  O  O238  1  0.745100  0.611700  0.728000  1.0  -0.754
  O  O239  1  0.559400  0.625800  0.640000  1.0  -0.7087
  O  O240  1  0.476000  0.584700  0.697800  1.0  -0.8147
  O  O241  1  0.323200  0.973200  0.598900  1.0  -0.7306
  O  O242  1  0.361700  0.004900  0.478000  1.0  -0.7554
  O  O243  1  0.375800  0.190600  0.390000  1.0  -0.7039
  O  O244  1  0.334700  0.274000  0.447800  1.0  -0.8107
  O  O245  1  0.823200  0.473200  0.098900  1.0  -0.7306
  O  O246  1  0.861700  0.504900  0.978000  1.0  -0.7552
  O  O247  1  0.875800  0.690600  0.890000  1.0  -0.7039
  O  O248  1  0.834700  0.774000  0.947800  1.0  -0.8107
  O  O249  1  0.176800  0.026800  0.098900  1.0  -0.728
  O  O250  1  0.138300  0.995100  0.978000  1.0  -0.7571
  O  O251  1  0.124200  0.809400  0.890000  1.0  -0.7032
  O  O252  1  0.165300  0.726000  0.947800  1.0  -0.8103
  O  O253  1  0.676800  0.526800  0.598900  1.0  -0.728
  O  O254  1  0.638300  0.495100  0.478000  1.0  -0.7573
  O  O255  1  0.624200  0.309400  0.390000  1.0  -0.7032
  O  O256  1  0.665300  0.226000  0.447800  1.0  -0.8103
