# generated using pymatgen
data_Cu4Si2H32C56N32Cl
_symmetry_space_group_name_H-M   'P 1'
_cell_length_a   18.51530000
_cell_length_b   18.51530000
_cell_length_c   25.05760000
_cell_angle_alpha   90.00000000
_cell_angle_beta   90.00000000
_cell_angle_gamma   90.00000000
_symmetry_Int_Tables_number   1
_chemical_formula_structural   Cu4Si2H32C56N32Cl
_chemical_formula_sum   'Cu8 Si4 H64 C112 N64 Cl2'
_cell_volume   8590.15457309
_cell_formula_units_Z   2
loop_
 _symmetry_equiv_pos_site_id
 _symmetry_equiv_pos_as_xyz
  1  'x, y, z'
loop_
 _atom_site_type_symbol
 _atom_site_label
 _atom_site_symmetry_multiplicity
 _atom_site_fract_x
 _atom_site_fract_y
 _atom_site_fract_z
 _atom_site_occupancy
 _atom_site_charge
  Cu  Cu1  1  0.403340  0.596660  0.500000  1.0  0.5899
  Cu  Cu2  1  0.596660  0.403340  0.500000  1.0  0.5887
  Cu  Cu3  1  0.903340  0.903340  0.000000  1.0  0.5905
  Cu  Cu4  1  0.096660  0.096660  0.000000  1.0  0.5881
  Cu  Cu5  1  0.500000  0.500000  0.398390  1.0  0.47
  Cu  Cu6  1  0.000000  0.000000  0.898390  1.0  0.47
  Cu  Cu7  1  0.000000  0.000000  0.101610  1.0  0.4681
  Cu  Cu8  1  0.500000  0.500000  0.601610  1.0  0.4681
  Si  Si9  1  0.500000  0.000000  0.250000  1.0  0.9078
  Si  Si10  1  0.500000  0.000000  0.750000  1.0  0.9078
  Si  Si11  1  0.000000  0.500000  0.250000  1.0  0.9078
  Si  Si12  1  0.000000  0.500000  0.750000  1.0  0.9078
  H  H13  1  0.565200  0.751800  0.294600  1.0  0.1115
  H  H14  1  0.567600  0.857700  0.245000  1.0  0.0896
  H  H15  1  0.440300  0.954300  0.353300  1.0  0.099
  H  H16  1  0.437500  0.848000  0.402900  1.0  0.1079
  H  H17  1  0.434800  0.248200  0.294600  1.0  0.112
  H  H18  1  0.432400  0.142300  0.245000  1.0  0.0891
  H  H19  1  0.559700  0.045700  0.353300  1.0  0.0986
  H  H20  1  0.562500  0.152000  0.402900  1.0  0.1076
  H  H21  1  0.748200  0.065200  0.794600  1.0  0.1113
  H  H22  1  0.642300  0.067600  0.745000  1.0  0.0883
  H  H23  1  0.545700  0.940300  0.853300  1.0  0.1001
  H  H24  1  0.652000  0.937500  0.902900  1.0  0.1076
  H  H25  1  0.251800  0.934800  0.794600  1.0  0.1113
  H  H26  1  0.357700  0.932400  0.745000  1.0  0.0891
  H  H27  1  0.454300  0.059700  0.853300  1.0  0.1
  H  H28  1  0.348000  0.062500  0.902900  1.0  0.1073
  H  H29  1  0.934800  0.251800  0.205400  1.0  0.111
  H  H30  1  0.932400  0.357700  0.255000  1.0  0.0903
  H  H31  1  0.059700  0.454300  0.146700  1.0  0.0982
  H  H32  1  0.062500  0.348000  0.097100  1.0  0.1085
  H  H33  1  0.065200  0.748200  0.205400  1.0  0.1106
  H  H34  1  0.067600  0.642300  0.255000  1.0  0.09
  H  H35  1  0.940300  0.545700  0.146700  1.0  0.0983
  H  H36  1  0.937500  0.652000  0.097100  1.0  0.1082
  H  H37  1  0.751800  0.565200  0.705400  1.0  0.1125
  H  H38  1  0.857700  0.567600  0.755000  1.0  0.0894
  H  H39  1  0.954300  0.440300  0.646700  1.0  0.0988
  H  H40  1  0.848000  0.437500  0.597100  1.0  0.1078
  H  H41  1  0.248200  0.434800  0.705400  1.0  0.1125
  H  H42  1  0.142300  0.432400  0.755000  1.0  0.0887
  H  H43  1  0.045700  0.559700  0.646700  1.0  0.0999
  H  H44  1  0.152000  0.562500  0.597100  1.0  0.1075
  H  H45  1  0.434800  0.248200  0.705400  1.0  0.1121
  H  H46  1  0.432400  0.142300  0.755000  1.0  0.0901
  H  H47  1  0.559700  0.045700  0.646700  1.0  0.0984
  H  H48  1  0.562500  0.152000  0.597100  1.0  0.1085
  H  H49  1  0.565200  0.751800  0.705400  1.0  0.1115
  H  H50  1  0.567600  0.857700  0.755000  1.0  0.09
  H  H51  1  0.440300  0.954300  0.646700  1.0  0.0985
  H  H52  1  0.437500  0.848000  0.597100  1.0  0.1082
  H  H53  1  0.251800  0.934800  0.205400  1.0  0.1115
  H  H54  1  0.357700  0.932400  0.255000  1.0  0.0901
  H  H55  1  0.454300  0.059700  0.146700  1.0  0.0992
  H  H56  1  0.348000  0.062500  0.097100  1.0  0.1077
  H  H57  1  0.748200  0.065200  0.205400  1.0  0.111
  H  H58  1  0.642300  0.067600  0.255000  1.0  0.0886
  H  H59  1  0.545700  0.940300  0.146700  1.0  0.0996
  H  H60  1  0.652000  0.937500  0.097100  1.0  0.1079
  H  H61  1  0.065200  0.748200  0.794600  1.0  0.1109
  H  H62  1  0.067600  0.642300  0.745000  1.0  0.0894
  H  H63  1  0.940300  0.545700  0.853300  1.0  0.0992
  H  H64  1  0.937500  0.652000  0.902900  1.0  0.108
  H  H65  1  0.934800  0.251800  0.794600  1.0  0.1107
  H  H66  1  0.932400  0.357700  0.745000  1.0  0.0895
  H  H67  1  0.059700  0.454300  0.853300  1.0  0.0986
  H  H68  1  0.062500  0.348000  0.902900  1.0  0.1075
  H  H69  1  0.248200  0.434800  0.294600  1.0  0.1124
  H  H70  1  0.142300  0.432400  0.245000  1.0  0.0885
  H  H71  1  0.045700  0.559700  0.353300  1.0  0.1002
  H  H72  1  0.152000  0.562500  0.402900  1.0  0.1072
  H  H73  1  0.751800  0.565200  0.294600  1.0  0.1124
  H  H74  1  0.857700  0.567600  0.245000  1.0  0.0887
  H  H75  1  0.954300  0.440300  0.353300  1.0  0.0997
  H  H76  1  0.848000  0.437500  0.402900  1.0  0.1073
  C  C77  1  0.493540  0.721170  0.383120  1.0  0.3521
  C  C78  1  0.499950  0.789360  0.353320  1.0  -0.0888
  C  C79  1  0.539070  0.792840  0.306630  1.0  -0.0841
  C  C80  1  0.540390  0.856260  0.277100  1.0  -0.019
  C  C81  1  0.503220  0.917430  0.293040  1.0  -0.2712
  C  C82  1  0.465590  0.913040  0.340600  1.0  -0.068
  C  C83  1  0.463940  0.849540  0.370380  1.0  -0.0687
  C  C84  1  0.506460  0.278830  0.383120  1.0  0.3521
  C  C85  1  0.500050  0.210640  0.353320  1.0  -0.0884
  C  C86  1  0.460930  0.207160  0.306630  1.0  -0.0827
  C  C87  1  0.459610  0.143740  0.277100  1.0  -0.0183
  C  C88  1  0.496780  0.082570  0.293040  1.0  -0.2734
  C  C89  1  0.534410  0.086960  0.340600  1.0  -0.0677
  C  C90  1  0.536060  0.150460  0.370380  1.0  -0.069
  C  C91  1  0.778830  0.993540  0.883120  1.0  0.3525
  C  C92  1  0.710640  0.999950  0.853320  1.0  -0.0884
  C  C93  1  0.707160  0.039070  0.806630  1.0  -0.0831
  C  C94  1  0.643740  0.040390  0.777100  1.0  -0.0162
  C  C95  1  0.582570  0.003220  0.793040  1.0  -0.2752
  C  C96  1  0.586960  0.965590  0.840600  1.0  -0.0691
  C  C97  1  0.650460  0.963940  0.870380  1.0  -0.0688
  C  C98  1  0.221170  0.006460  0.883120  1.0  0.3532
  C  C99  1  0.289360  0.000050  0.853320  1.0  -0.089
  C  C100  1  0.292840  0.960930  0.806630  1.0  -0.0838
  C  C101  1  0.356260  0.959610  0.777100  1.0  -0.0148
  C  C102  1  0.417430  0.996780  0.793040  1.0  -0.2767
  C  C103  1  0.413040  0.034410  0.840600  1.0  -0.07
  C  C104  1  0.349540  0.036060  0.870380  1.0  -0.07
  C  C105  1  0.006460  0.221170  0.116880  1.0  0.3522
  C  C106  1  0.000050  0.289360  0.146680  1.0  -0.089
  C  C107  1  0.960930  0.292840  0.193370  1.0  -0.0832
  C  C108  1  0.959610  0.356260  0.222900  1.0  -0.0169
  C  C109  1  0.996780  0.417430  0.206960  1.0  -0.2731
  C  C110  1  0.034410  0.413040  0.159400  1.0  -0.0696
  C  C111  1  0.036060  0.349540  0.129620  1.0  -0.0679
  C  C112  1  0.993540  0.778830  0.116880  1.0  0.3523
  C  C113  1  0.999950  0.710640  0.146680  1.0  -0.0881
  C  C114  1  0.039070  0.707160  0.193370  1.0  -0.0829
  C  C115  1  0.040390  0.643740  0.222900  1.0  -0.0191
  C  C116  1  0.003220  0.582570  0.206960  1.0  -0.2732
  C  C117  1  0.965590  0.586960  0.159400  1.0  -0.071
  C  C118  1  0.963940  0.650460  0.129620  1.0  -0.0667
  C  C119  1  0.721170  0.493540  0.616880  1.0  0.3531
  C  C120  1  0.789360  0.499950  0.646680  1.0  -0.0895
  C  C121  1  0.792840  0.539070  0.693370  1.0  -0.0841
  C  C122  1  0.856260  0.540390  0.722900  1.0  -0.0149
  C  C123  1  0.917430  0.503220  0.706960  1.0  -0.2771
  C  C124  1  0.913040  0.465590  0.659400  1.0  -0.0722
  C  C125  1  0.849540  0.463940  0.629620  1.0  -0.0678
  C  C126  1  0.278830  0.506460  0.616880  1.0  0.3528
  C  C127  1  0.210640  0.500050  0.646680  1.0  -0.0883
  C  C128  1  0.207160  0.460930  0.693370  1.0  -0.0829
  C  C129  1  0.143740  0.459610  0.722900  1.0  -0.0149
  C  C130  1  0.082570  0.496780  0.706960  1.0  -0.2762
  C  C131  1  0.086960  0.534410  0.659400  1.0  -0.0716
  C  C132  1  0.150460  0.536060  0.629620  1.0  -0.0678
  C  C133  1  0.506460  0.278830  0.616880  1.0  0.3521
  C  C134  1  0.500050  0.210640  0.646680  1.0  -0.0883
  C  C135  1  0.460930  0.207160  0.693370  1.0  -0.083
  C  C136  1  0.459610  0.143740  0.722900  1.0  -0.0181
  C  C137  1  0.496780  0.082570  0.706960  1.0  -0.2739
  C  C138  1  0.534410  0.086960  0.659400  1.0  -0.0712
  C  C139  1  0.536060  0.150460  0.629620  1.0  -0.0679
  C  C140  1  0.493540  0.721170  0.616880  1.0  0.3522
  C  C141  1  0.499950  0.789360  0.646680  1.0  -0.0889
  C  C142  1  0.539070  0.792840  0.693370  1.0  -0.0833
  C  C143  1  0.540390  0.856260  0.722900  1.0  -0.018
  C  C144  1  0.503220  0.917430  0.706960  1.0  -0.2722
  C  C145  1  0.465590  0.913040  0.659400  1.0  -0.0696
  C  C146  1  0.463940  0.849540  0.629620  1.0  -0.067
  C  C147  1  0.221170  0.006460  0.116880  1.0  0.3531
  C  C148  1  0.289360  0.000050  0.146680  1.0  -0.0896
  C  C149  1  0.292840  0.960930  0.193370  1.0  -0.0833
  C  C150  1  0.356260  0.959610  0.222900  1.0  -0.0131
  C  C151  1  0.417430  0.996780  0.206960  1.0  -0.277
  C  C152  1  0.413040  0.034410  0.159400  1.0  -0.0717
  C  C153  1  0.349540  0.036060  0.129620  1.0  -0.068
  C  C154  1  0.778830  0.993540  0.116880  1.0  0.3525
  C  C155  1  0.710640  0.999950  0.146680  1.0  -0.0882
  C  C156  1  0.707160  0.039070  0.193370  1.0  -0.0835
  C  C157  1  0.643740  0.040390  0.222900  1.0  -0.0158
  C  C158  1  0.582570  0.003220  0.206960  1.0  -0.2763
  C  C159  1  0.586960  0.965590  0.159400  1.0  -0.0713
  C  C160  1  0.650460  0.963940  0.129620  1.0  -0.0676
  C  C161  1  0.993540  0.778830  0.883120  1.0  0.3524
  C  C162  1  0.999950  0.710640  0.853320  1.0  -0.0883
  C  C163  1  0.039070  0.707160  0.806630  1.0  -0.0826
  C  C164  1  0.040390  0.643740  0.777100  1.0  -0.0191
  C  C165  1  0.003220  0.582570  0.793040  1.0  -0.2727
  C  C166  1  0.965590  0.586960  0.840600  1.0  -0.0686
  C  C167  1  0.963940  0.650460  0.870380  1.0  -0.0686
  C  C168  1  0.006460  0.221170  0.883120  1.0  0.3521
  C  C169  1  0.000050  0.289360  0.853320  1.0  -0.0888
  C  C170  1  0.960930  0.292840  0.806630  1.0  -0.0838
  C  C171  1  0.959610  0.356260  0.777100  1.0  -0.0181
  C  C172  1  0.996780  0.417430  0.793040  1.0  -0.2721
  C  C173  1  0.034410  0.413040  0.840600  1.0  -0.0667
  C  C174  1  0.036060  0.349540  0.870380  1.0  -0.0689
  C  C175  1  0.278830  0.506460  0.383120  1.0  0.3527
  C  C176  1  0.210640  0.500050  0.353320  1.0  -0.0883
  C  C177  1  0.207160  0.460930  0.306630  1.0  -0.0835
  C  C178  1  0.143740  0.459610  0.277100  1.0  -0.0161
  C  C179  1  0.082570  0.496780  0.293040  1.0  -0.2751
  C  C180  1  0.086960  0.534410  0.340600  1.0  -0.0702
  C  C181  1  0.150460  0.536060  0.370380  1.0  -0.07
  C  C182  1  0.721170  0.493540  0.383120  1.0  0.3532
  C  C183  1  0.789360  0.499950  0.353320  1.0  -0.0889
  C  C184  1  0.792840  0.539070  0.306630  1.0  -0.084
  C  C185  1  0.856260  0.540390  0.277100  1.0  -0.0157
  C  C186  1  0.917430  0.503220  0.293040  1.0  -0.2769
  C  C187  1  0.913040  0.465590  0.340600  1.0  -0.0696
  C  C188  1  0.849540  0.463940  0.370380  1.0  -0.0686
  N  N189  1  0.459920  0.645820  0.441040  1.0  0.0253
  N  N190  1  0.496000  0.610680  0.402800  1.0  -0.0138
  N  N191  1  0.517960  0.656950  0.365920  1.0  -0.3332
  N  N192  1  0.457740  0.715750  0.429400  1.0  -0.3012
  N  N193  1  0.540080  0.354180  0.441040  1.0  0.0247
  N  N194  1  0.504000  0.389320  0.402800  1.0  -0.0142
  N  N195  1  0.482040  0.343050  0.365920  1.0  -0.3326
  N  N196  1  0.542260  0.284250  0.429400  1.0  -0.3016
  N  N197  1  0.854180  0.959920  0.941040  1.0  0.0261
  N  N198  1  0.889320  0.996000  0.902800  1.0  -0.0159
  N  N199  1  0.843050  0.017960  0.865920  1.0  -0.3315
  N  N200  1  0.784250  0.957740  0.929400  1.0  -0.3013
  N  N201  1  0.145820  0.040080  0.941040  1.0  0.0246
  N  N202  1  0.110680  0.004000  0.902800  1.0  -0.0178
  N  N203  1  0.156950  0.982040  0.865920  1.0  -0.331
  N  N204  1  0.215750  0.042260  0.929400  1.0  -0.3019
  N  N205  1  0.040080  0.145820  0.058960  1.0  0.0255
  N  N206  1  0.004000  0.110680  0.097200  1.0  -0.0147
  N  N207  1  0.982040  0.156950  0.134080  1.0  -0.3329
  N  N208  1  0.042260  0.215750  0.070600  1.0  -0.302
  N  N209  1  0.959920  0.854180  0.058960  1.0  0.0256
  N  N210  1  0.996000  0.889320  0.097200  1.0  -0.0141
  N  N211  1  0.017960  0.843050  0.134080  1.0  -0.3334
  N  N212  1  0.957740  0.784250  0.070600  1.0  -0.3014
  N  N213  1  0.645820  0.459920  0.558960  1.0  0.0248
  N  N214  1  0.610680  0.496000  0.597200  1.0  -0.0174
  N  N215  1  0.656950  0.517960  0.634080  1.0  -0.333
  N  N216  1  0.715750  0.457740  0.570600  1.0  -0.3027
  N  N217  1  0.354180  0.540080  0.558960  1.0  0.0255
  N  N218  1  0.389320  0.504000  0.597200  1.0  -0.0169
  N  N219  1  0.343050  0.482040  0.634080  1.0  -0.3298
  N  N220  1  0.284250  0.542260  0.570600  1.0  -0.3007
  N  N221  1  0.540080  0.354180  0.558960  1.0  0.0253
  N  N222  1  0.504000  0.389320  0.597200  1.0  -0.0147
  N  N223  1  0.482040  0.343050  0.634080  1.0  -0.3337
  N  N224  1  0.542260  0.284250  0.570600  1.0  -0.3022
  N  N225  1  0.459920  0.645820  0.558960  1.0  0.0257
  N  N226  1  0.496000  0.610680  0.597200  1.0  -0.0145
  N  N227  1  0.517960  0.656950  0.634080  1.0  -0.3323
  N  N228  1  0.457740  0.715750  0.570600  1.0  -0.3016
  N  N229  1  0.145820  0.040080  0.058960  1.0  0.0248
  N  N230  1  0.110680  0.004000  0.097200  1.0  -0.0179
  N  N231  1  0.156950  0.982040  0.134080  1.0  -0.3313
  N  N232  1  0.215750  0.042260  0.070600  1.0  -0.3026
  N  N233  1  0.854180  0.959920  0.058960  1.0  0.0253
  N  N234  1  0.889320  0.996000  0.097200  1.0  -0.0172
  N  N235  1  0.843050  0.017960  0.134080  1.0  -0.3317
  N  N236  1  0.784250  0.957740  0.070600  1.0  -0.3015
  N  N237  1  0.959920  0.854180  0.941040  1.0  0.0246
  N  N238  1  0.996000  0.889320  0.902800  1.0  -0.0139
  N  N239  1  0.017960  0.843050  0.865920  1.0  -0.3337
  N  N240  1  0.957740  0.784250  0.929400  1.0  -0.3009
  N  N241  1  0.040080  0.145820  0.941040  1.0  0.0253
  N  N242  1  0.004000  0.110680  0.902800  1.0  -0.0138
  N  N243  1  0.982040  0.156950  0.865920  1.0  -0.3323
  N  N244  1  0.042260  0.215750  0.929400  1.0  -0.3017
  N  N245  1  0.354180  0.540080  0.441040  1.0  0.026
  N  N246  1  0.389320  0.504000  0.402800  1.0  -0.0165
  N  N247  1  0.343050  0.482040  0.365920  1.0  -0.3304
  N  N248  1  0.284250  0.542260  0.429400  1.0  -0.3009
  N  N249  1  0.645820  0.459920  0.441040  1.0  0.0248
  N  N250  1  0.610680  0.496000  0.402800  1.0  -0.0166
  N  N251  1  0.656950  0.517960  0.365920  1.0  -0.3317
  N  N252  1  0.715750  0.457740  0.429400  1.0  -0.3021
  Cl  Cl253  1  0.500000  0.500000  0.500000  1.0  -0.21
  Cl  Cl254  1  0.000000  0.000000  0.000000  1.0  -0.21
