# generated using pymatgen
data_ZnH4C9(NO2)2
_symmetry_space_group_name_H-M   'P 1'
_cell_length_a   26.85500000
_cell_length_b   26.85500000
_cell_length_c   26.90750000
_cell_angle_alpha   60.06450000
_cell_angle_beta   60.06450000
_cell_angle_gamma   90.00000000
_symmetry_Int_Tables_number   1
_chemical_formula_structural   ZnH4C9(NO2)2
_chemical_formula_sum   'Zn24 H96 C216 N48 O96'
_cell_volume   13748.43519894
_cell_formula_units_Z   24
loop_
 _symmetry_equiv_pos_site_id
 _symmetry_equiv_pos_as_xyz
  1  'x, y, z'
loop_
 _atom_site_type_symbol
 _atom_site_label
 _atom_site_symmetry_multiplicity
 _atom_site_fract_x
 _atom_site_fract_y
 _atom_site_fract_z
 _atom_site_occupancy
 _atom_site_charge
  Zn  Zn1  1  0.184400  0.236260  0.289390  1.0  1.1535
  Zn  Zn2  1  0.063440  0.135690  0.401820  1.0  1.0347
  Zn  Zn3  1  0.526210  0.474360  0.289380  1.0  1.1594
  Zn  Zn4  1  0.534740  0.462490  0.401820  1.0  1.0266
  Zn  Zn5  1  0.236260  0.526200  0.289390  1.0  1.1616
  Zn  Zn6  1  0.135690  0.534740  0.401820  1.0  1.0348
  Zn  Zn7  1  0.474360  0.184410  0.289380  1.0  1.1544
  Zn  Zn8  1  0.462490  0.063440  0.401820  1.0  1.0332
  Zn  Zn9  1  0.815600  0.763740  0.710610  1.0  1.1528
  Zn  Zn10  1  0.936560  0.864310  0.598180  1.0  1.0325
  Zn  Zn11  1  0.473790  0.525640  0.710620  1.0  1.1624
  Zn  Zn12  1  0.465260  0.537510  0.598180  1.0  1.0256
  Zn  Zn13  1  0.763730  0.473790  0.710620  1.0  1.1547
  Zn  Zn14  1  0.864310  0.465260  0.598180  1.0  1.0323
  Zn  Zn15  1  0.525640  0.815590  0.710620  1.0  1.1584
  Zn  Zn16  1  0.537510  0.936560  0.598180  1.0  1.0278
  Zn  Zn17  1  0.209600  0.549650  0.000000  1.0  1.1525
  Zn  Zn18  1  0.100090  0.567280  0.000000  1.0  1.0843
  Zn  Zn19  1  0.790400  0.450350  0.000000  1.0  1.1505
  Zn  Zn20  1  0.899910  0.432720  0.000000  1.0  1.0858
  Zn  Zn21  1  0.549650  0.790400  0.000000  1.0  1.1466
  Zn  Zn22  1  0.567280  0.899910  0.000000  1.0  1.0965
  Zn  Zn23  1  0.450350  0.209600  0.000000  1.0  1.1508
  Zn  Zn24  1  0.432720  0.100090  0.000000  1.0  1.0949
  H  H25  1  0.267200  0.904900  0.672400  1.0  0.2978
  H  H26  1  0.107600  0.929400  0.607000  1.0  0.264
  H  H27  1  0.083100  0.708400  0.804600  1.0  0.2539
  H  H28  1  0.188500  0.754700  0.820000  1.0  0.1004
  H  H29  1  0.329500  0.733100  0.834800  1.0  0.1021
  H  H30  1  0.350400  0.889200  0.674000  1.0  0.1055
  H  H31  1  0.261400  0.986200  0.534000  1.0  0.0968
  H  H32  1  0.288200  0.146400  0.372200  1.0  0.1038
  H  H33  1  0.120800  0.023400  0.524400  1.0  0.1039
  H  H34  1  0.020700  0.788600  0.712600  1.0  0.0966
  H  H35  1  0.876200  0.640500  0.826000  1.0  0.104
  H  H36  1  0.004900  0.627200  0.863200  1.0  0.103
  H  H37  1  0.060400  0.422700  0.672400  1.0  0.291
  H  H38  1  0.285400  0.463600  0.607000  1.0  0.2657
  H  H39  1  0.112300  0.487000  0.804600  1.0  0.2569
  H  H40  1  0.991500  0.425300  0.820000  1.0  0.1024
  H  H41  1  0.835700  0.432100  0.834800  1.0  0.1018
  H  H42  1  0.975600  0.436800  0.674000  1.0  0.1058
  H  H43  1  0.204600  0.479800  0.534000  1.0  0.0979
  H  H44  1  0.339600  0.481400  0.372200  1.0  0.1042
  H  H45  1  0.354800  0.452200  0.524400  1.0  0.1049
  H  H46  1  0.266700  0.498800  0.712600  1.0  0.0976
  H  H47  1  0.297800  0.533500  0.826000  1.0  0.1055
  H  H48  1  0.131900  0.509600  0.863200  1.0  0.102
  H  H49  1  0.904900  0.060400  0.672400  1.0  0.2966
  H  H50  1  0.929400  0.285400  0.607000  1.0  0.2635
  H  H51  1  0.708400  0.112300  0.804600  1.0  0.2538
  H  H52  1  0.754700  0.991500  0.820000  1.0  0.1018
  H  H53  1  0.733100  0.835700  0.834800  1.0  0.1041
  H  H54  1  0.889200  0.975600  0.674000  1.0  0.105
  H  H55  1  0.986200  0.204600  0.534000  1.0  0.0982
  H  H56  1  0.146400  0.339600  0.372200  1.0  0.1035
  H  H57  1  0.023400  0.354800  0.524400  1.0  0.1047
  H  H58  1  0.788600  0.266700  0.712600  1.0  0.0965
  H  H59  1  0.640500  0.297800  0.826000  1.0  0.1045
  H  H60  1  0.627200  0.131900  0.863200  1.0  0.1033
  H  H61  1  0.422700  0.267200  0.672400  1.0  0.2912
  H  H62  1  0.463600  0.107600  0.607000  1.0  0.263
  H  H63  1  0.487000  0.083100  0.804600  1.0  0.256
  H  H64  1  0.425300  0.188500  0.820000  1.0  0.1006
  H  H65  1  0.432100  0.329500  0.834800  1.0  0.1018
  H  H66  1  0.436800  0.350400  0.674000  1.0  0.1058
  H  H67  1  0.479800  0.261400  0.534000  1.0  0.0987
  H  H68  1  0.481400  0.288200  0.372200  1.0  0.1035
  H  H69  1  0.452200  0.120800  0.524400  1.0  0.105
  H  H70  1  0.498800  0.020700  0.712600  1.0  0.0975
  H  H71  1  0.533500  0.876200  0.826000  1.0  0.1042
  H  H72  1  0.509600  0.004900  0.863200  1.0  0.1035
  H  H73  1  0.732800  0.095100  0.327600  1.0  0.2938
  H  H74  1  0.892400  0.070600  0.393000  1.0  0.2639
  H  H75  1  0.916900  0.291600  0.195400  1.0  0.2549
  H  H76  1  0.811500  0.245300  0.180000  1.0  0.1003
  H  H77  1  0.670500  0.266900  0.165200  1.0  0.1022
  H  H78  1  0.649600  0.110800  0.326000  1.0  0.1056
  H  H79  1  0.738600  0.013800  0.466000  1.0  0.0968
  H  H80  1  0.711800  0.853600  0.627800  1.0  0.104
  H  H81  1  0.879200  0.976600  0.475600  1.0  0.1042
  H  H82  1  0.979300  0.211400  0.287400  1.0  0.0963
  H  H83  1  0.123800  0.359500  0.174000  1.0  0.104
  H  H84  1  0.995100  0.372800  0.136800  1.0  0.1021
  H  H85  1  0.939600  0.577300  0.327600  1.0  0.2913
  H  H86  1  0.714600  0.536400  0.393000  1.0  0.265
  H  H87  1  0.887700  0.513000  0.195400  1.0  0.2552
  H  H88  1  0.008500  0.574700  0.180000  1.0  0.1018
  H  H89  1  0.164300  0.567900  0.165200  1.0  0.1026
  H  H90  1  0.024400  0.563200  0.326000  1.0  0.1056
  H  H91  1  0.795400  0.520200  0.466000  1.0  0.0983
  H  H92  1  0.660400  0.518600  0.627800  1.0  0.1039
  H  H93  1  0.645200  0.547800  0.475600  1.0  0.105
  H  H94  1  0.733300  0.501200  0.287400  1.0  0.0984
  H  H95  1  0.702200  0.466500  0.174000  1.0  0.1055
  H  H96  1  0.868100  0.490400  0.136800  1.0  0.1011
  H  H97  1  0.095100  0.939600  0.327600  1.0  0.2976
  H  H98  1  0.070600  0.714600  0.393000  1.0  0.264
  H  H99  1  0.291600  0.887700  0.195400  1.0  0.2533
  H  H100  1  0.245300  0.008500  0.180000  1.0  0.1014
  H  H101  1  0.266900  0.164300  0.165200  1.0  0.1035
  H  H102  1  0.110800  0.024400  0.326000  1.0  0.1048
  H  H103  1  0.013800  0.795400  0.466000  1.0  0.0986
  H  H104  1  0.853600  0.660400  0.627800  1.0  0.1037
  H  H105  1  0.976600  0.645200  0.475600  1.0  0.1047
  H  H106  1  0.211400  0.733300  0.287400  1.0  0.0975
  H  H107  1  0.359500  0.702200  0.174000  1.0  0.1042
  H  H108  1  0.372800  0.868100  0.136800  1.0  0.1026
  H  H109  1  0.577300  0.732800  0.327600  1.0  0.2915
  H  H110  1  0.536400  0.892400  0.393000  1.0  0.2612
  H  H111  1  0.513000  0.916900  0.195400  1.0  0.2565
  H  H112  1  0.574700  0.811500  0.180000  1.0  0.1006
  H  H113  1  0.567900  0.670500  0.165200  1.0  0.1017
  H  H114  1  0.563200  0.649600  0.326000  1.0  0.1056
  H  H115  1  0.520200  0.738600  0.466000  1.0  0.0982
  H  H116  1  0.518600  0.711800  0.627800  1.0  0.1034
  H  H117  1  0.547800  0.879200  0.475600  1.0  0.1048
  H  H118  1  0.501200  0.979300  0.287400  1.0  0.0985
  H  H119  1  0.466500  0.123800  0.174000  1.0  0.1042
  H  H120  1  0.490400  0.995100  0.136800  1.0  0.1039
  C  C121  1  0.197750  0.854040  0.699040  1.0  0.529
  C  C122  1  0.148330  0.892370  0.649040  1.0  0.4569
  C  C123  1  0.113350  0.793230  0.734800  1.0  0.5359
  C  C124  1  0.265230  0.827560  0.740760  1.0  0.202
  C  C125  1  0.229030  0.769900  0.802200  1.0  -0.0335
  C  C126  1  0.253020  0.735050  0.836920  1.0  -0.1543
  C  C127  1  0.313510  0.757040  0.811180  1.0  0.0393
  C  C128  1  0.350240  0.815550  0.749300  1.0  -0.1467
  C  C129  1  0.326150  0.850320  0.714820  1.0  -0.1048
  C  C130  1  0.215310  0.671260  0.901200  1.0  0.7132
  C  C131  1  0.416370  0.838400  0.718860  1.0  0.7122
  C  C132  1  0.183730  0.995410  0.540760  1.0  0.198
  C  C133  1  0.245890  0.012490  0.511500  1.0  -0.0735
  C  C134  1  0.284680  0.069580  0.448080  1.0  -0.1667
  C  C135  1  0.262020  0.108670  0.414380  1.0  0.022
  C  C136  1  0.200760  0.091910  0.443080  1.0  -0.172
  C  C137  1  0.162040  0.034920  0.505820  1.0  -0.097
  C  C138  1  0.352240  0.086510  0.414860  1.0  0.6948
  C  C139  1  0.175410  0.131120  0.405440  1.0  0.6953
  C  C140  1  0.021020  0.711950  0.786940  1.0  0.1862
  C  C141  1  0.999340  0.747320  0.748020  1.0  -0.0279
  C  C142  1  0.945230  0.719720  0.763080  1.0  -0.1541
  C  C143  1  0.912910  0.658210  0.815440  1.0  0.0192
  C  C144  1  0.936650  0.623300  0.852020  1.0  -0.1743
  C  C145  1  0.989860  0.650580  0.837940  1.0  -0.1133
  C  C146  1  0.921720  0.756500  0.720980  1.0  0.7016
  C  C147  1  0.903770  0.556490  0.905480  1.0  0.7248
  C  C148  1  0.103210  0.446920  0.699040  1.0  0.5292
  C  C149  1  0.202630  0.458590  0.649040  1.0  0.4567
  C  C150  1  0.151850  0.471970  0.734800  1.0  0.563
  C  C151  1  0.994010  0.431680  0.740760  1.0  0.2012
  C  C152  1  0.968770  0.427900  0.802200  1.0  -0.0304
  C  C153  1  0.910060  0.428030  0.836920  1.0  -0.158
  C  C154  1  0.875310  0.431780  0.811180  1.0  0.0373
  C  C155  1  0.900460  0.435150  0.749300  1.0  -0.1469
  C  C156  1  0.959030  0.434860  0.714820  1.0  -0.105
  C  C157  1  0.883490  0.427540  0.901200  1.0  0.7168
  C  C158  1  0.864770  0.442740  0.718860  1.0  0.7146
  C  C159  1  0.275510  0.463830  0.540760  1.0  0.1984
  C  C160  1  0.242610  0.476010  0.511500  1.0  -0.0716
  C  C161  1  0.267240  0.482340  0.448080  1.0  -0.1675
  C  C162  1  0.323600  0.476950  0.414380  1.0  0.0209
  C  C163  1  0.356160  0.465010  0.443080  1.0  -0.1722
  C  C164  1  0.332140  0.459260  0.505820  1.0  -0.0924
  C  C165  1  0.232900  0.498630  0.414860  1.0  0.6959
  C  C166  1  0.419150  0.463440  0.405440  1.0  0.6938
  C  C167  1  0.192040  0.501110  0.786940  1.0  0.1999
  C  C168  1  0.252640  0.504660  0.748020  1.0  -0.0307
  C  C169  1  0.291690  0.517200  0.763080  1.0  -0.1536
  C  C170  1  0.271650  0.526350  0.815440  1.0  0.0232
  C  C171  1  0.211330  0.524680  0.852020  1.0  -0.1746
  C  C172  1  0.172200  0.511480  0.837940  1.0  -0.1105
  C  C173  1  0.357300  0.522520  0.720980  1.0  0.7015
  C  C174  1  0.190750  0.538030  0.905480  1.0  0.727
  C  C175  1  0.854040  0.103210  0.699040  1.0  0.5287
  C  C176  1  0.892370  0.202630  0.649040  1.0  0.4578
  C  C177  1  0.793230  0.151850  0.734800  1.0  0.56
  C  C178  1  0.827560  0.994010  0.740760  1.0  0.2007
  C  C179  1  0.769900  0.968770  0.802200  1.0  -0.036
  C  C180  1  0.735050  0.910060  0.836920  1.0  -0.1545
  C  C181  1  0.757040  0.875310  0.811180  1.0  0.0412
  C  C182  1  0.815550  0.900460  0.749300  1.0  -0.1466
  C  C183  1  0.850320  0.959030  0.714820  1.0  -0.1065
  C  C184  1  0.671260  0.883490  0.901200  1.0  0.7148
  C  C185  1  0.838400  0.864770  0.718860  1.0  0.7137
  C  C186  1  0.995410  0.275510  0.540760  1.0  0.1994
  C  C187  1  0.012490  0.242610  0.511500  1.0  -0.0704
  C  C188  1  0.069580  0.267240  0.448080  1.0  -0.1668
  C  C189  1  0.108670  0.323600  0.414380  1.0  0.0165
  C  C190  1  0.091910  0.356160  0.443080  1.0  -0.1716
  C  C191  1  0.034920  0.332140  0.505820  1.0  -0.0917
  C  C192  1  0.086510  0.232900  0.414860  1.0  0.696
  C  C193  1  0.131120  0.419150  0.405440  1.0  0.6955
  C  C194  1  0.711950  0.192040  0.786940  1.0  0.1953
  C  C195  1  0.747320  0.252640  0.748020  1.0  -0.0287
  C  C196  1  0.719720  0.291690  0.763080  1.0  -0.1538
  C  C197  1  0.658210  0.271650  0.815440  1.0  0.023
  C  C198  1  0.623300  0.211330  0.852020  1.0  -0.1758
  C  C199  1  0.650580  0.172200  0.837940  1.0  -0.1117
  C  C200  1  0.756500  0.357300  0.720980  1.0  0.7017
  C  C201  1  0.556490  0.190750  0.905480  1.0  0.7217
  C  C202  1  0.446920  0.197750  0.699040  1.0  0.5287
  C  C203  1  0.458590  0.148330  0.649040  1.0  0.4583
  C  C204  1  0.471970  0.113350  0.734800  1.0  0.5299
  C  C205  1  0.431680  0.265230  0.740760  1.0  0.2005
  C  C206  1  0.427900  0.229030  0.802200  1.0  -0.0295
  C  C207  1  0.428030  0.253020  0.836920  1.0  -0.1553
  C  C208  1  0.431780  0.313510  0.811180  1.0  0.0358
  C  C209  1  0.435150  0.350240  0.749300  1.0  -0.1463
  C  C210  1  0.434860  0.326150  0.714820  1.0  -0.1046
  C  C211  1  0.427540  0.215310  0.901200  1.0  0.7162
  C  C212  1  0.442740  0.416370  0.718860  1.0  0.7139
  C  C213  1  0.463830  0.183730  0.540760  1.0  0.1927
  C  C214  1  0.476010  0.245890  0.511500  1.0  -0.0736
  C  C215  1  0.482340  0.284680  0.448080  1.0  -0.1656
  C  C216  1  0.476950  0.262020  0.414380  1.0  0.0192
  C  C217  1  0.465010  0.200760  0.443080  1.0  -0.1726
  C  C218  1  0.459260  0.162040  0.505820  1.0  -0.0988
  C  C219  1  0.498630  0.352240  0.414860  1.0  0.6959
  C  C220  1  0.463440  0.175410  0.405440  1.0  0.6958
  C  C221  1  0.501110  0.021020  0.786940  1.0  0.1945
  C  C222  1  0.504660  0.999340  0.748020  1.0  -0.0295
  C  C223  1  0.517200  0.945230  0.763080  1.0  -0.1551
  C  C224  1  0.526350  0.912910  0.815440  1.0  0.0236
  C  C225  1  0.524680  0.936650  0.852020  1.0  -0.1748
  C  C226  1  0.511480  0.989860  0.837940  1.0  -0.1086
  C  C227  1  0.522520  0.921720  0.720980  1.0  0.7019
  C  C228  1  0.538030  0.903770  0.905480  1.0  0.7216
  C  C229  1  0.802250  0.145960  0.300960  1.0  0.5291
  C  C230  1  0.851670  0.107630  0.350960  1.0  0.4568
  C  C231  1  0.886650  0.206770  0.265200  1.0  0.5363
  C  C232  1  0.734770  0.172440  0.259240  1.0  0.2019
  C  C233  1  0.770970  0.230100  0.197800  1.0  -0.0333
  C  C234  1  0.746980  0.264950  0.163080  1.0  -0.1539
  C  C235  1  0.686490  0.242960  0.188820  1.0  0.0391
  C  C236  1  0.649760  0.184450  0.250700  1.0  -0.1465
  C  C237  1  0.673850  0.149680  0.285180  1.0  -0.105
  C  C238  1  0.784690  0.328740  0.098800  1.0  0.7127
  C  C239  1  0.583630  0.161600  0.281140  1.0  0.7118
  C  C240  1  0.816270  0.004590  0.459240  1.0  0.1971
  C  C241  1  0.754110  0.987510  0.488500  1.0  -0.0726
  C  C242  1  0.715320  0.930420  0.551920  1.0  -0.1661
  C  C243  1  0.737980  0.891330  0.585620  1.0  0.0217
  C  C244  1  0.799240  0.908090  0.556920  1.0  -0.1725
  C  C245  1  0.837960  0.965080  0.494180  1.0  -0.0969
  C  C246  1  0.647760  0.913490  0.585140  1.0  0.6946
  C  C247  1  0.824590  0.868880  0.594560  1.0  0.6941
  C  C248  1  0.978980  0.288050  0.213060  1.0  0.1861
  C  C249  1  0.000660  0.252680  0.251980  1.0  -0.0272
  C  C250  1  0.054770  0.280280  0.236920  1.0  -0.1547
  C  C251  1  0.087090  0.341790  0.184560  1.0  0.0198
  C  C252  1  0.063350  0.376700  0.147980  1.0  -0.1742
  C  C253  1  0.010140  0.349420  0.162060  1.0  -0.1119
  C  C254  1  0.078280  0.243500  0.279020  1.0  0.7015
  C  C255  1  0.096230  0.443510  0.094520  1.0  0.7243
  C  C256  1  0.896790  0.553080  0.300960  1.0  0.5298
  C  C257  1  0.797370  0.541410  0.350960  1.0  0.4569
  C  C258  1  0.848150  0.528030  0.265200  1.0  0.5622
  C  C259  1  0.005990  0.568320  0.259240  1.0  0.2015
  C  C260  1  0.031230  0.572100  0.197800  1.0  -0.0306
  C  C261  1  0.089940  0.571970  0.163080  1.0  -0.1577
  C  C262  1  0.124690  0.568220  0.188820  1.0  0.0392
  C  C263  1  0.099540  0.564850  0.250700  1.0  -0.1469
  C  C264  1  0.040970  0.565140  0.285180  1.0  -0.1062
  C  C265  1  0.116510  0.572460  0.098800  1.0  0.7169
  C  C266  1  0.135230  0.557260  0.281140  1.0  0.7143
  C  C267  1  0.724490  0.536170  0.459240  1.0  0.1989
  C  C268  1  0.757390  0.523990  0.488500  1.0  -0.0701
  C  C269  1  0.732760  0.517660  0.551920  1.0  -0.1683
  C  C270  1  0.676400  0.523050  0.585620  1.0  0.02
  C  C271  1  0.643840  0.534990  0.556920  1.0  -0.1717
  C  C272  1  0.667860  0.540740  0.494180  1.0  -0.0917
  C  C273  1  0.767100  0.501370  0.585140  1.0  0.6961
  C  C274  1  0.580850  0.536560  0.594560  1.0  0.6937
  C  C275  1  0.807960  0.498890  0.213060  1.0  0.1986
  C  C276  1  0.747360  0.495340  0.251980  1.0  -0.0295
  C  C277  1  0.708310  0.482800  0.236920  1.0  -0.1541
  C  C278  1  0.728350  0.473650  0.184560  1.0  0.023
  C  C279  1  0.788670  0.475320  0.147980  1.0  -0.1736
  C  C280  1  0.827800  0.488520  0.162060  1.0  -0.1085
  C  C281  1  0.642700  0.477480  0.279020  1.0  0.702
  C  C282  1  0.809250  0.461970  0.094520  1.0  0.7266
  C  C283  1  0.145960  0.896790  0.300960  1.0  0.5292
  C  C284  1  0.107630  0.797370  0.350960  1.0  0.458
  C  C285  1  0.206770  0.848150  0.265200  1.0  0.5588
  C  C286  1  0.172440  0.005990  0.259240  1.0  0.2009
  C  C287  1  0.230100  0.031230  0.197800  1.0  -0.0339
  C  C288  1  0.264950  0.089940  0.163080  1.0  -0.1537
  C  C289  1  0.242960  0.124690  0.188820  1.0  0.0424
  C  C290  1  0.184450  0.099540  0.250700  1.0  -0.1466
  C  C291  1  0.149680  0.040970  0.285180  1.0  -0.1074
  C  C292  1  0.328740  0.116510  0.098800  1.0  0.7153
  C  C293  1  0.161600  0.135230  0.281140  1.0  0.7138
  C  C294  1  0.004590  0.724490  0.459240  1.0  0.1981
  C  C295  1  0.987510  0.757390  0.488500  1.0  -0.0699
  C  C296  1  0.930420  0.732760  0.551920  1.0  -0.1665
  C  C297  1  0.891330  0.676400  0.585620  1.0  0.0175
  C  C298  1  0.908090  0.643840  0.556920  1.0  -0.1714
  C  C299  1  0.965080  0.667860  0.494180  1.0  -0.0935
  C  C300  1  0.913490  0.767100  0.585140  1.0  0.6965
  C  C301  1  0.868880  0.580850  0.594560  1.0  0.6954
  C  C302  1  0.288050  0.807960  0.213060  1.0  0.1948
  C  C303  1  0.252680  0.747360  0.251980  1.0  -0.0286
  C  C304  1  0.280280  0.708310  0.236920  1.0  -0.1539
  C  C305  1  0.341790  0.728350  0.184560  1.0  0.0229
  C  C306  1  0.376700  0.788670  0.147980  1.0  -0.1758
  C  C307  1  0.349420  0.827800  0.162060  1.0  -0.1123
  C  C308  1  0.243500  0.642700  0.279020  1.0  0.7008
  C  C309  1  0.443510  0.809250  0.094520  1.0  0.7221
  C  C310  1  0.553080  0.802250  0.300960  1.0  0.5285
  C  C311  1  0.541410  0.851670  0.350960  1.0  0.4574
  C  C312  1  0.528030  0.886650  0.265200  1.0  0.5301
  C  C313  1  0.568320  0.734770  0.259240  1.0  0.2015
  C  C314  1  0.572100  0.770970  0.197800  1.0  -0.0317
  C  C315  1  0.571970  0.746980  0.163080  1.0  -0.1544
  C  C316  1  0.568220  0.686490  0.188820  1.0  0.0388
  C  C317  1  0.564850  0.649760  0.250700  1.0  -0.1463
  C  C318  1  0.565140  0.673850  0.285180  1.0  -0.105
  C  C319  1  0.572460  0.784690  0.098800  1.0  0.717
  C  C320  1  0.557260  0.583630  0.281140  1.0  0.7133
  C  C321  1  0.536170  0.816270  0.459240  1.0  0.193
  C  C322  1  0.523990  0.754110  0.488500  1.0  -0.0736
  C  C323  1  0.517660  0.715320  0.551920  1.0  -0.1664
  C  C324  1  0.523050  0.737980  0.585620  1.0  0.0193
  C  C325  1  0.534990  0.799240  0.556920  1.0  -0.1731
  C  C326  1  0.540740  0.837960  0.494180  1.0  -0.0985
  C  C327  1  0.501370  0.647760  0.585140  1.0  0.6962
  C  C328  1  0.536560  0.824590  0.594560  1.0  0.6963
  C  C329  1  0.498890  0.978980  0.213060  1.0  0.1946
  C  C330  1  0.495340  0.000660  0.251980  1.0  -0.0289
  C  C331  1  0.482800  0.054770  0.236920  1.0  -0.155
  C  C332  1  0.473650  0.087090  0.184560  1.0  0.023
  C  C333  1  0.475320  0.063350  0.147980  1.0  -0.1744
  C  C334  1  0.488520  0.010140  0.162060  1.0  -0.1091
  C  C335  1  0.477480  0.078280  0.279020  1.0  0.7028
  C  C336  1  0.461970  0.096230  0.094520  1.0  0.7217
  N  N337  1  0.159250  0.798860  0.741860  1.0  -0.5267
  N  N338  1  0.195520  0.903630  0.650460  1.0  -0.4498
  N  N339  1  0.104580  0.838060  0.691440  1.0  -0.4783
  N  N340  1  0.245470  0.867010  0.700320  1.0  -0.441
  N  N341  1  0.142310  0.937590  0.600260  1.0  -0.386
  N  N342  1  0.074120  0.735140  0.778320  1.0  -0.3501
  N  N343  1  0.098890  0.459280  0.741860  1.0  -0.5208
  N  N344  1  0.154020  0.445910  0.650460  1.0  -0.4458
  N  N345  1  0.203980  0.470500  0.691440  1.0  -0.4797
  N  N346  1  0.054210  0.432670  0.700320  1.0  -0.4419
  N  N347  1  0.257430  0.462150  0.600260  1.0  -0.3847
  N  N348  1  0.147560  0.486540  0.778320  1.0  -0.3449
  N  N349  1  0.798860  0.098890  0.741860  1.0  -0.518
  N  N350  1  0.903630  0.154020  0.650460  1.0  -0.4396
  N  N351  1  0.838060  0.203980  0.691440  1.0  -0.4766
  N  N352  1  0.867010  0.054210  0.700320  1.0  -0.4428
  N  N353  1  0.937590  0.257430  0.600260  1.0  -0.3837
  N  N354  1  0.735140  0.147560  0.778320  1.0  -0.3456
  N  N355  1  0.459280  0.159250  0.741860  1.0  -0.5256
  N  N356  1  0.445910  0.195520  0.650460  1.0  -0.4456
  N  N357  1  0.470500  0.104580  0.691440  1.0  -0.4753
  N  N358  1  0.432670  0.245470  0.700320  1.0  -0.4421
  N  N359  1  0.462150  0.142310  0.600260  1.0  -0.3815
  N  N360  1  0.486540  0.074120  0.778320  1.0  -0.3493
  N  N361  1  0.840750  0.201140  0.258140  1.0  -0.5286
  N  N362  1  0.804480  0.096370  0.349540  1.0  -0.4507
  N  N363  1  0.895420  0.161940  0.308560  1.0  -0.4792
  N  N364  1  0.754530  0.132990  0.299680  1.0  -0.4416
  N  N365  1  0.857690  0.062410  0.399740  1.0  -0.3847
  N  N366  1  0.925880  0.264860  0.221680  1.0  -0.3516
  N  N367  1  0.901110  0.540720  0.258140  1.0  -0.5214
  N  N368  1  0.845980  0.554090  0.349540  1.0  -0.4447
  N  N369  1  0.796020  0.529500  0.308560  1.0  -0.4784
  N  N370  1  0.945790  0.567330  0.299680  1.0  -0.4403
  N  N371  1  0.742570  0.537850  0.399740  1.0  -0.3854
  N  N372  1  0.852440  0.513460  0.221680  1.0  -0.3439
  N  N373  1  0.201140  0.901110  0.258140  1.0  -0.5208
  N  N374  1  0.096370  0.845980  0.349540  1.0  -0.435
  N  N375  1  0.161940  0.796020  0.308560  1.0  -0.4745
  N  N376  1  0.132990  0.945790  0.299680  1.0  -0.4435
  N  N377  1  0.062410  0.742570  0.399740  1.0  -0.3819
  N  N378  1  0.264860  0.852440  0.221680  1.0  -0.345
  N  N379  1  0.540720  0.840750  0.258140  1.0  -0.5259
  N  N380  1  0.554090  0.804480  0.349540  1.0  -0.4443
  N  N381  1  0.529500  0.895420  0.308560  1.0  -0.4775
  N  N382  1  0.567330  0.754530  0.299680  1.0  -0.4418
  N  N383  1  0.537850  0.857690  0.399740  1.0  -0.3797
  N  N384  1  0.513460  0.925880  0.221680  1.0  -0.3498
  O  O385  1  0.160660  0.653200  0.924500  1.0  -0.6335
  O  O386  1  0.241710  0.639610  0.925680  1.0  -0.6554
  O  O387  1  0.436480  0.803940  0.749960  1.0  -0.6144
  O  O388  1  0.446140  0.890990  0.664340  1.0  -0.6234
  O  O389  1  0.372450  0.046710  0.441840  1.0  -0.5985
  O  O390  1  0.383780  0.139780  0.360920  1.0  -0.6396
  O  O391  1  0.212380  0.180840  0.347420  1.0  -0.5929
  O  O392  1  0.119550  0.112220  0.433180  1.0  -0.6212
  O  O393  1  0.957280  0.807830  0.665400  1.0  -0.6034
  O  O394  1  0.868830  0.732320  0.743980  1.0  -0.6377
  O  O395  1  0.851230  0.536540  0.925640  1.0  -0.6272
  O  O396  1  0.932230  0.524830  0.925960  1.0  -0.6152
  O  O397  1  0.914840  0.422300  0.924500  1.0  -0.6342
  O  O398  1  0.832610  0.434710  0.925680  1.0  -0.6554
  O  O399  1  0.813560  0.446100  0.749960  1.0  -0.6146
  O  O400  1  0.889520  0.444670  0.664340  1.0  -0.6225
  O  O401  1  0.185710  0.511450  0.441840  1.0  -0.5991
  O  O402  1  0.255300  0.499300  0.360920  1.0  -0.6366
  O  O403  1  0.440200  0.471740  0.347420  1.0  -0.5916
  O  O404  1  0.447270  0.454600  0.433180  1.0  -0.6211
  O  O405  1  0.377320  0.526770  0.665400  1.0  -0.6014
  O  O406  1  0.387190  0.523700  0.743980  1.0  -0.6347
  O  O407  1  0.223130  0.537820  0.925640  1.0  -0.6273
  O  O408  1  0.141810  0.549210  0.925960  1.0  -0.6164
  O  O409  1  0.653200  0.914840  0.924500  1.0  -0.6347
  O  O410  1  0.639610  0.832610  0.925680  1.0  -0.6562
  O  O411  1  0.803940  0.813560  0.749960  1.0  -0.6154
  O  O412  1  0.890990  0.889520  0.664340  1.0  -0.6253
  O  O413  1  0.046710  0.185710  0.441840  1.0  -0.598
  O  O414  1  0.139780  0.255300  0.360920  1.0  -0.6386
  O  O415  1  0.180840  0.440200  0.347420  1.0  -0.5915
  O  O416  1  0.112220  0.447270  0.433180  1.0  -0.618
  O  O417  1  0.807830  0.377320  0.665400  1.0  -0.6023
  O  O418  1  0.732320  0.387190  0.743980  1.0  -0.6355
  O  O419  1  0.536540  0.223130  0.925640  1.0  -0.6302
  O  O420  1  0.524830  0.141810  0.925960  1.0  -0.6168
  O  O421  1  0.422300  0.160660  0.924500  1.0  -0.6343
  O  O422  1  0.434710  0.241710  0.925680  1.0  -0.6555
  O  O423  1  0.446100  0.436480  0.749960  1.0  -0.6147
  O  O424  1  0.444670  0.446140  0.664340  1.0  -0.6245
  O  O425  1  0.511450  0.372450  0.441840  1.0  -0.5965
  O  O426  1  0.499300  0.383780  0.360920  1.0  -0.6373
  O  O427  1  0.471740  0.212380  0.347420  1.0  -0.5923
  O  O428  1  0.454600  0.119550  0.433180  1.0  -0.6207
  O  O429  1  0.526770  0.957280  0.665400  1.0  -0.6028
  O  O430  1  0.523700  0.868830  0.743980  1.0  -0.6362
  O  O431  1  0.537820  0.851230  0.925640  1.0  -0.6286
  O  O432  1  0.549210  0.932230  0.925960  1.0  -0.6142
  O  O433  1  0.839340  0.346800  0.075500  1.0  -0.6354
  O  O434  1  0.758290  0.360390  0.074320  1.0  -0.6549
  O  O435  1  0.563520  0.196060  0.250040  1.0  -0.6155
  O  O436  1  0.553860  0.109010  0.335660  1.0  -0.6235
  O  O437  1  0.627550  0.953290  0.558160  1.0  -0.5974
  O  O438  1  0.616220  0.860220  0.639080  1.0  -0.6402
  O  O439  1  0.787620  0.819160  0.652580  1.0  -0.5917
  O  O440  1  0.880450  0.887780  0.566820  1.0  -0.621
  O  O441  1  0.042720  0.192170  0.334600  1.0  -0.6051
  O  O442  1  0.131170  0.267680  0.256020  1.0  -0.6377
  O  O443  1  0.148770  0.463460  0.074360  1.0  -0.6284
  O  O444  1  0.067770  0.475170  0.074040  1.0  -0.6146
  O  O445  1  0.085160  0.577700  0.075500  1.0  -0.6337
  O  O446  1  0.167390  0.565290  0.074320  1.0  -0.6554
  O  O447  1  0.186440  0.553900  0.250040  1.0  -0.6156
  O  O448  1  0.110480  0.555330  0.335660  1.0  -0.6231
  O  O449  1  0.814290  0.488550  0.558160  1.0  -0.5985
  O  O450  1  0.744700  0.500700  0.639080  1.0  -0.6392
  O  O451  1  0.559800  0.528260  0.652580  1.0  -0.5921
  O  O452  1  0.552730  0.545400  0.566820  1.0  -0.6192
  O  O453  1  0.622680  0.473230  0.334600  1.0  -0.6026
  O  O454  1  0.612810  0.476300  0.256020  1.0  -0.6356
  O  O455  1  0.776870  0.462180  0.074360  1.0  -0.6265
  O  O456  1  0.858190  0.450790  0.074040  1.0  -0.6172
  O  O457  1  0.346800  0.085160  0.075500  1.0  -0.6328
  O  O458  1  0.360390  0.167390  0.074320  1.0  -0.6574
  O  O459  1  0.196060  0.186440  0.250040  1.0  -0.6161
  O  O460  1  0.109010  0.110480  0.335660  1.0  -0.625
  O  O461  1  0.953290  0.814290  0.558160  1.0  -0.5984
  O  O462  1  0.860220  0.744700  0.639080  1.0  -0.6388
  O  O463  1  0.819160  0.559800  0.652580  1.0  -0.5915
  O  O464  1  0.887780  0.552730  0.566820  1.0  -0.6175
  O  O465  1  0.192170  0.622680  0.334600  1.0  -0.6029
  O  O466  1  0.267680  0.612810  0.256020  1.0  -0.6365
  O  O467  1  0.463460  0.776870  0.074360  1.0  -0.6306
  O  O468  1  0.475170  0.858190  0.074040  1.0  -0.6164
  O  O469  1  0.577700  0.839340  0.075500  1.0  -0.635
  O  O470  1  0.565290  0.758290  0.074320  1.0  -0.6535
  O  O471  1  0.553900  0.563520  0.250040  1.0  -0.6154
  O  O472  1  0.555330  0.553860  0.335660  1.0  -0.624
  O  O473  1  0.488550  0.627550  0.558160  1.0  -0.595
  O  O474  1  0.500700  0.616220  0.639080  1.0  -0.6378
  O  O475  1  0.528260  0.787620  0.652580  1.0  -0.5927
  O  O476  1  0.545400  0.880450  0.566820  1.0  -0.62
  O  O477  1  0.473230  0.042720  0.334600  1.0  -0.6036
  O  O478  1  0.476300  0.131170  0.256020  1.0  -0.6359
  O  O479  1  0.462180  0.148770  0.074360  1.0  -0.6279
  O  O480  1  0.450790  0.067770  0.074040  1.0  -0.6138
