# generated using pymatgen
data_CuH24(C2N)12
_symmetry_space_group_name_H-M   'P 1'
_cell_length_a   35.25630000
_cell_length_b   15.46250000
_cell_length_c   25.05100000
_cell_angle_alpha   90.00000000
_cell_angle_beta   122.79400000
_cell_angle_gamma   90.00000000
_symmetry_Int_Tables_number   1
_chemical_formula_structural   CuH24(C2N)12
_chemical_formula_sum   'Cu8 H192 C192 N96'
_cell_volume   11480.02806156
_cell_formula_units_Z   8
loop_
 _symmetry_equiv_pos_site_id
 _symmetry_equiv_pos_as_xyz
  1  'x, y, z'
loop_
 _atom_site_type_symbol
 _atom_site_label
 _atom_site_symmetry_multiplicity
 _atom_site_fract_x
 _atom_site_fract_y
 _atom_site_fract_z
 _atom_site_occupancy
 _atom_site_charge
  Cu  Cu1  1  0.303330  0.043200  0.276510  1.0  0.3668
  Cu  Cu2  1  0.803330  0.543200  0.276510  1.0  0.3668
  Cu  Cu3  1  0.696670  0.043200  0.223490  1.0  0.3643
  Cu  Cu4  1  0.196670  0.543200  0.223490  1.0  0.3643
  Cu  Cu5  1  0.696670  0.956800  0.723490  1.0  0.3645
  Cu  Cu6  1  0.196670  0.456800  0.723490  1.0  0.3645
  Cu  Cu7  1  0.303330  0.956800  0.776510  1.0  0.3669
  Cu  Cu8  1  0.803330  0.456800  0.776510  1.0  0.3669
  H  H9  1  0.310600  0.960500  0.400300  1.0  0.0759
  H  H10  1  0.392600  0.932500  0.340600  1.0  0.0761
  H  H11  1  0.441500  0.798800  0.479400  1.0  0.0814
  H  H12  1  0.452000  0.833500  0.429900  1.0  0.0547
  H  H13  1  0.400900  0.773400  0.316600  1.0  0.0562
  H  H14  1  0.413400  0.654200  0.465000  1.0  0.0734
  H  H15  1  0.250700  0.361200  0.268200  1.0  0.0688
  H  H16  1  0.288200  0.579700  0.234300  1.0  0.0814
  H  H17  1  0.368700  0.497800  0.252800  1.0  0.0604
  H  H18  1  0.388700  0.445000  0.316200  1.0  0.073
  H  H19  1  0.381600  0.649000  0.261600  1.0  0.0896
  H  H20  1  0.385700  0.529400  0.405400  1.0  0.0764
  H  H21  1  0.282700  0.238900  0.245600  1.0  0.0768
  H  H22  1  0.228500  0.050200  0.124400  1.0  0.0674
  H  H23  1  0.169800  0.230100  0.032100  1.0  0.0995
  H  H24  1  0.180400  0.134600  0.023100  1.0  0.0848
  H  H25  1  0.250600  0.108700  0.027200  1.0  0.0741
  H  H26  1  0.200800  0.344900  0.003800  1.0  0.0739
  H  H27  1  0.384200  0.181900  0.349000  1.0  0.0858
  H  H28  1  0.346200  0.040200  0.195500  1.0  0.0818
  H  H29  1  0.386500  0.182600  0.153900  1.0  0.1253
  H  H30  1  0.397900  0.084300  0.169400  1.0  0.0604
  H  H31  1  0.461800  0.034100  0.228100  1.0  0.0825
  H  H32  1  0.461400  0.287900  0.222400  1.0  0.0627
  H  H33  1  0.810600  0.460500  0.400300  1.0  0.0755
  H  H34  1  0.892600  0.432500  0.340600  1.0  0.0761
  H  H35  1  0.941500  0.298800  0.479400  1.0  0.0814
  H  H36  1  0.952000  0.333500  0.429900  1.0  0.0547
  H  H37  1  0.900900  0.273400  0.316600  1.0  0.0562
  H  H38  1  0.913400  0.154200  0.465000  1.0  0.0734
  H  H39  1  0.750700  0.861200  0.268200  1.0  0.0688
  H  H40  1  0.788200  0.079700  0.234300  1.0  0.0814
  H  H41  1  0.868700  0.997800  0.252800  1.0  0.0604
  H  H42  1  0.888700  0.945000  0.316200  1.0  0.073
  H  H43  1  0.881600  0.149000  0.261600  1.0  0.0896
  H  H44  1  0.885700  0.029400  0.405400  1.0  0.0764
  H  H45  1  0.782700  0.738900  0.245600  1.0  0.0768
  H  H46  1  0.728500  0.550200  0.124400  1.0  0.0685
  H  H47  1  0.669800  0.730100  0.032100  1.0  0.0995
  H  H48  1  0.680400  0.634600  0.023100  1.0  0.0848
  H  H49  1  0.750600  0.608700  0.027200  1.0  0.0736
  H  H50  1  0.700800  0.844900  0.003800  1.0  0.0739
  H  H51  1  0.884200  0.681900  0.349000  1.0  0.0858
  H  H52  1  0.846200  0.540200  0.195500  1.0  0.0818
  H  H53  1  0.886500  0.682600  0.153900  1.0  0.1253
  H  H54  1  0.897900  0.584300  0.169400  1.0  0.0604
  H  H55  1  0.961800  0.534100  0.228100  1.0  0.0825
  H  H56  1  0.961400  0.787900  0.222400  1.0  0.0627
  H  H57  1  0.689400  0.960500  0.099700  1.0  0.0739
  H  H58  1  0.607400  0.932500  0.159400  1.0  0.0769
  H  H59  1  0.558500  0.798800  0.020600  1.0  0.0815
  H  H60  1  0.548000  0.833500  0.070100  1.0  0.0537
  H  H61  1  0.599100  0.773400  0.183400  1.0  0.056
  H  H62  1  0.586600  0.654200  0.035000  1.0  0.0728
  H  H63  1  0.749300  0.361200  0.231800  1.0  0.0679
  H  H64  1  0.711800  0.579700  0.265700  1.0  0.0815
  H  H65  1  0.631300  0.497800  0.247200  1.0  0.0608
  H  H66  1  0.611300  0.445000  0.183800  1.0  0.0713
  H  H67  1  0.618400  0.649000  0.238400  1.0  0.089
  H  H68  1  0.614300  0.529400  0.094600  1.0  0.0748
  H  H69  1  0.717300  0.238900  0.254400  1.0  0.0762
  H  H70  1  0.771500  0.050200  0.375600  1.0  0.0678
  H  H71  1  0.830200  0.230100  0.467900  1.0  0.1012
  H  H72  1  0.819600  0.134600  0.476900  1.0  0.0846
  H  H73  1  0.749400  0.108700  0.472800  1.0  0.0727
  H  H74  1  0.799200  0.344900  0.496200  1.0  0.0736
  H  H75  1  0.615800  0.181900  0.151000  1.0  0.085
  H  H76  1  0.653800  0.040200  0.304500  1.0  0.0823
  H  H77  1  0.613500  0.182600  0.346100  1.0  0.1245
  H  H78  1  0.602100  0.084300  0.330600  1.0  0.0606
  H  H79  1  0.538200  0.034100  0.271900  1.0  0.0825
  H  H80  1  0.538600  0.287900  0.277600  1.0  0.0628
  H  H81  1  0.189400  0.460500  0.099700  1.0  0.0735
  H  H82  1  0.107400  0.432500  0.159400  1.0  0.0769
  H  H83  1  0.058500  0.298800  0.020600  1.0  0.0815
  H  H84  1  0.048000  0.333500  0.070100  1.0  0.0537
  H  H85  1  0.099100  0.273400  0.183400  1.0  0.056
  H  H86  1  0.086600  0.154200  0.035000  1.0  0.0728
  H  H87  1  0.249300  0.861200  0.231800  1.0  0.0679
  H  H88  1  0.211800  0.079700  0.265700  1.0  0.0815
  H  H89  1  0.131300  0.997800  0.247200  1.0  0.0608
  H  H90  1  0.111300  0.945000  0.183800  1.0  0.0713
  H  H91  1  0.118400  0.149000  0.238400  1.0  0.089
  H  H92  1  0.114300  0.029400  0.094600  1.0  0.0748
  H  H93  1  0.217300  0.738900  0.254400  1.0  0.0762
  H  H94  1  0.271500  0.550200  0.375600  1.0  0.0688
  H  H95  1  0.330200  0.730100  0.467900  1.0  0.1012
  H  H96  1  0.319600  0.634600  0.476900  1.0  0.0846
  H  H97  1  0.249400  0.608700  0.472800  1.0  0.073
  H  H98  1  0.299200  0.844900  0.496200  1.0  0.0736
  H  H99  1  0.115800  0.681900  0.151000  1.0  0.085
  H  H100  1  0.153800  0.540200  0.304500  1.0  0.0823
  H  H101  1  0.113500  0.682600  0.346100  1.0  0.1245
  H  H102  1  0.102100  0.584300  0.330600  1.0  0.0606
  H  H103  1  0.038200  0.534100  0.271900  1.0  0.0825
  H  H104  1  0.038600  0.787900  0.277600  1.0  0.0628
  H  H105  1  0.689400  0.039500  0.599700  1.0  0.0731
  H  H106  1  0.607400  0.067500  0.659400  1.0  0.077
  H  H107  1  0.558500  0.201200  0.520600  1.0  0.0818
  H  H108  1  0.548000  0.166500  0.570100  1.0  0.054
  H  H109  1  0.599100  0.226600  0.683400  1.0  0.0563
  H  H110  1  0.586600  0.345800  0.535000  1.0  0.0726
  H  H111  1  0.749300  0.638800  0.731800  1.0  0.0681
  H  H112  1  0.711800  0.420300  0.765700  1.0  0.0817
  H  H113  1  0.631300  0.502200  0.747200  1.0  0.0605
  H  H114  1  0.611300  0.555000  0.683800  1.0  0.0711
  H  H115  1  0.618400  0.351000  0.738400  1.0  0.0892
  H  H116  1  0.614300  0.470600  0.594600  1.0  0.0756
  H  H117  1  0.717300  0.761100  0.754400  1.0  0.0762
  H  H118  1  0.771500  0.949800  0.875600  1.0  0.0671
  H  H119  1  0.830200  0.769900  0.967900  1.0  0.1015
  H  H120  1  0.819600  0.865400  0.976900  1.0  0.0841
  H  H121  1  0.749400  0.891300  0.972800  1.0  0.0742
  H  H122  1  0.799200  0.655100  0.996200  1.0  0.074
  H  H123  1  0.615800  0.818100  0.651000  1.0  0.0853
  H  H124  1  0.653800  0.959800  0.804500  1.0  0.0812
  H  H125  1  0.613500  0.817400  0.846100  1.0  0.1256
  H  H126  1  0.602100  0.915700  0.830600  1.0  0.061
  H  H127  1  0.538200  0.965900  0.771900  1.0  0.0822
  H  H128  1  0.538600  0.712100  0.777600  1.0  0.0633
  H  H129  1  0.189400  0.539500  0.599700  1.0  0.0729
  H  H130  1  0.107400  0.567500  0.659400  1.0  0.077
  H  H131  1  0.058500  0.701200  0.520600  1.0  0.0818
  H  H132  1  0.048000  0.666500  0.570100  1.0  0.054
  H  H133  1  0.099100  0.726600  0.683400  1.0  0.0563
  H  H134  1  0.086600  0.845800  0.535000  1.0  0.0726
  H  H135  1  0.249300  0.138800  0.731800  1.0  0.0681
  H  H136  1  0.211800  0.920300  0.765700  1.0  0.0817
  H  H137  1  0.131300  0.002200  0.747200  1.0  0.0605
  H  H138  1  0.111300  0.055000  0.683800  1.0  0.0711
  H  H139  1  0.118400  0.851000  0.738400  1.0  0.0892
  H  H140  1  0.114300  0.970600  0.594600  1.0  0.0756
  H  H141  1  0.217300  0.261100  0.754400  1.0  0.0762
  H  H142  1  0.271500  0.449800  0.875600  1.0  0.0689
  H  H143  1  0.330200  0.269900  0.967900  1.0  0.1015
  H  H144  1  0.319600  0.365400  0.976900  1.0  0.0841
  H  H145  1  0.249400  0.391300  0.972800  1.0  0.0729
  H  H146  1  0.299200  0.155100  0.996200  1.0  0.074
  H  H147  1  0.115800  0.318100  0.651000  1.0  0.0853
  H  H148  1  0.153800  0.459800  0.804500  1.0  0.0812
  H  H149  1  0.113500  0.317400  0.846100  1.0  0.1256
  H  H150  1  0.102100  0.415700  0.830600  1.0  0.061
  H  H151  1  0.038200  0.465900  0.771900  1.0  0.0822
  H  H152  1  0.038600  0.212100  0.777600  1.0  0.0633
  H  H153  1  0.310600  0.039500  0.900300  1.0  0.0745
  H  H154  1  0.392600  0.067500  0.840600  1.0  0.0763
  H  H155  1  0.441500  0.201200  0.979400  1.0  0.0816
  H  H156  1  0.452000  0.166500  0.929900  1.0  0.0544
  H  H157  1  0.400900  0.226600  0.816600  1.0  0.0559
  H  H158  1  0.413400  0.345800  0.965000  1.0  0.0736
  H  H159  1  0.250700  0.638800  0.768200  1.0  0.069
  H  H160  1  0.288200  0.420300  0.734300  1.0  0.0813
  H  H161  1  0.368700  0.502200  0.752800  1.0  0.0601
  H  H162  1  0.388700  0.555000  0.816200  1.0  0.0729
  H  H163  1  0.381600  0.351000  0.761600  1.0  0.0893
  H  H164  1  0.385700  0.470600  0.905400  1.0  0.0759
  H  H165  1  0.282700  0.761100  0.745600  1.0  0.0768
  H  H166  1  0.228500  0.949800  0.624400  1.0  0.0667
  H  H167  1  0.169800  0.769900  0.532100  1.0  0.1
  H  H168  1  0.180400  0.865400  0.523100  1.0  0.0855
  H  H169  1  0.250600  0.891300  0.527200  1.0  0.0726
  H  H170  1  0.200800  0.655100  0.503800  1.0  0.0738
  H  H171  1  0.384200  0.818100  0.849000  1.0  0.0855
  H  H172  1  0.346200  0.959800  0.695500  1.0  0.0819
  H  H173  1  0.386500  0.817400  0.653900  1.0  0.1253
  H  H174  1  0.397900  0.915700  0.669400  1.0  0.0621
  H  H175  1  0.461800  0.965900  0.728100  1.0  0.0826
  H  H176  1  0.461400  0.712100  0.722400  1.0  0.0628
  H  H177  1  0.810600  0.539500  0.900300  1.0  0.0743
  H  H178  1  0.892600  0.567500  0.840600  1.0  0.0763
  H  H179  1  0.941500  0.701200  0.979400  1.0  0.0816
  H  H180  1  0.952000  0.666500  0.929900  1.0  0.0544
  H  H181  1  0.900900  0.726600  0.816600  1.0  0.0559
  H  H182  1  0.913400  0.845800  0.965000  1.0  0.0736
  H  H183  1  0.750700  0.138800  0.768200  1.0  0.069
  H  H184  1  0.788200  0.920300  0.734300  1.0  0.0813
  H  H185  1  0.868700  0.002200  0.752800  1.0  0.0601
  H  H186  1  0.888700  0.055000  0.816200  1.0  0.0729
  H  H187  1  0.881600  0.851000  0.761600  1.0  0.0893
  H  H188  1  0.885700  0.970600  0.905400  1.0  0.0759
  H  H189  1  0.782700  0.261100  0.745600  1.0  0.0768
  H  H190  1  0.728500  0.449800  0.624400  1.0  0.0686
  H  H191  1  0.669800  0.269900  0.532100  1.0  0.1
  H  H192  1  0.680400  0.365400  0.523100  1.0  0.0855
  H  H193  1  0.750600  0.391300  0.527200  1.0  0.0729
  H  H194  1  0.700800  0.155100  0.503800  1.0  0.0738
  H  H195  1  0.884200  0.318100  0.849000  1.0  0.0855
  H  H196  1  0.846200  0.459800  0.695500  1.0  0.0819
  H  H197  1  0.886500  0.317400  0.653900  1.0  0.1253
  H  H198  1  0.897900  0.415700  0.669400  1.0  0.0621
  H  H199  1  0.961800  0.465900  0.728100  1.0  0.0826
  H  H200  1  0.961400  0.212100  0.722400  1.0  0.0628
  C  C201  1  0.334200  0.941700  0.396700  1.0  0.2186
  C  C202  1  0.379300  0.926300  0.363800  1.0  0.0551
  C  C203  1  0.428400  0.810800  0.434800  1.0  -0.0978
  C  C204  1  0.410300  0.729400  0.397700  1.0  0.0184
  C  C205  1  0.399600  0.723000  0.336100  1.0  -0.1412
  C  C206  1  0.406000  0.654100  0.423300  1.0  -0.1172
  C  C207  1  0.268200  0.404200  0.265900  1.0  0.1537
  C  C208  1  0.288600  0.523300  0.247500  1.0  0.0464
  C  C209  1  0.368300  0.491500  0.291000  1.0  -0.0362
  C  C210  1  0.383100  0.573500  0.328000  1.0  0.0927
  C  C211  1  0.387300  0.649100  0.302500  1.0  -0.2227
  C  C212  1  0.390800  0.578000  0.388200  1.0  -0.1364
  C  C213  1  0.265400  0.208200  0.207900  1.0  0.166
  C  C214  1  0.235900  0.105400  0.141900  1.0  0.0601
  C  C215  1  0.194000  0.189000  0.043200  1.0  -0.0904
  C  C216  1  0.220700  0.221400  0.018500  1.0  0.0661
  C  C217  1  0.250000  0.166400  0.016200  1.0  -0.1482
  C  C218  1  0.220300  0.305700  0.002500  1.0  -0.1311
  C  C219  1  0.381200  0.160900  0.312100  1.0  0.2532
  C  C220  1  0.360100  0.082300  0.226900  1.0  0.0521
  C  C221  1  0.403900  0.142000  0.188000  1.0  -0.1171
  C  C222  1  0.451900  0.161000  0.218000  1.0  0.0756
  C  C223  1  0.476600  0.087000  0.235000  1.0  -0.1998
  C  C224  1  0.476500  0.235000  0.234000  1.0  -0.1373
  C  C225  1  0.834200  0.441700  0.396700  1.0  0.2186
  C  C226  1  0.879300  0.426300  0.363800  1.0  0.0551
  C  C227  1  0.928400  0.310800  0.434800  1.0  -0.0978
  C  C228  1  0.910300  0.229400  0.397700  1.0  0.0184
  C  C229  1  0.899600  0.223000  0.336100  1.0  -0.1412
  C  C230  1  0.906000  0.154100  0.423300  1.0  -0.1172
  C  C231  1  0.768200  0.904200  0.265900  1.0  0.1537
  C  C232  1  0.788600  0.023300  0.247500  1.0  0.0464
  C  C233  1  0.868300  0.991500  0.291000  1.0  -0.0362
  C  C234  1  0.883100  0.073500  0.328000  1.0  0.0927
  C  C235  1  0.887300  0.149100  0.302500  1.0  -0.2227
  C  C236  1  0.890800  0.078000  0.388200  1.0  -0.1364
  C  C237  1  0.765400  0.708200  0.207900  1.0  0.166
  C  C238  1  0.735900  0.605400  0.141900  1.0  0.0601
  C  C239  1  0.694000  0.689000  0.043200  1.0  -0.0904
  C  C240  1  0.720700  0.721400  0.018500  1.0  0.0661
  C  C241  1  0.750000  0.666400  0.016200  1.0  -0.1482
  C  C242  1  0.720300  0.805700  0.002500  1.0  -0.1311
  C  C243  1  0.881200  0.660900  0.312100  1.0  0.2532
  C  C244  1  0.860100  0.582300  0.226900  1.0  0.0521
  C  C245  1  0.903900  0.642000  0.188000  1.0  -0.1171
  C  C246  1  0.951900  0.661000  0.218000  1.0  0.0756
  C  C247  1  0.976600  0.587000  0.235000  1.0  -0.1998
  C  C248  1  0.976500  0.735000  0.234000  1.0  -0.1373
  C  C249  1  0.665800  0.941700  0.103300  1.0  0.2186
  C  C250  1  0.620700  0.926300  0.136200  1.0  0.0548
  C  C251  1  0.571600  0.810800  0.065200  1.0  -0.0977
  C  C252  1  0.589700  0.729400  0.102300  1.0  0.0184
  C  C253  1  0.600400  0.723000  0.163900  1.0  -0.1387
  C  C254  1  0.594000  0.654100  0.076700  1.0  -0.1169
  C  C255  1  0.731800  0.404200  0.234100  1.0  0.1532
  C  C256  1  0.711400  0.523300  0.252500  1.0  0.0478
  C  C257  1  0.631700  0.491500  0.209000  1.0  -0.0365
  C  C258  1  0.616900  0.573500  0.172000  1.0  0.0914
  C  C259  1  0.612700  0.649100  0.197500  1.0  -0.2209
  C  C260  1  0.609200  0.578000  0.111800  1.0  -0.1352
  C  C261  1  0.734600  0.208200  0.292100  1.0  0.1663
  C  C262  1  0.764100  0.105400  0.358100  1.0  0.0602
  C  C263  1  0.806000  0.189000  0.456800  1.0  -0.0902
  C  C264  1  0.779300  0.221400  0.481500  1.0  0.0662
  C  C265  1  0.750000  0.166400  0.483800  1.0  -0.1484
  C  C266  1  0.779700  0.305700  0.497500  1.0  -0.131
  C  C267  1  0.618800  0.160900  0.187900  1.0  0.2531
  C  C268  1  0.639900  0.082300  0.273100  1.0  0.0511
  C  C269  1  0.596100  0.142000  0.312000  1.0  -0.1188
  C  C270  1  0.548100  0.161000  0.282000  1.0  0.0766
  C  C271  1  0.523400  0.087000  0.265000  1.0  -0.1927
  C  C272  1  0.523500  0.235000  0.266000  1.0  -0.1382
  C  C273  1  0.165800  0.441700  0.103300  1.0  0.2186
  C  C274  1  0.120700  0.426300  0.136200  1.0  0.0548
  C  C275  1  0.071600  0.310800  0.065200  1.0  -0.0977
  C  C276  1  0.089700  0.229400  0.102300  1.0  0.0184
  C  C277  1  0.100400  0.223000  0.163900  1.0  -0.1387
  C  C278  1  0.094000  0.154100  0.076700  1.0  -0.1169
  C  C279  1  0.231800  0.904200  0.234100  1.0  0.1532
  C  C280  1  0.211400  0.023300  0.252500  1.0  0.0478
  C  C281  1  0.131700  0.991500  0.209000  1.0  -0.0365
  C  C282  1  0.116900  0.073500  0.172000  1.0  0.0914
  C  C283  1  0.112700  0.149100  0.197500  1.0  -0.2209
  C  C284  1  0.109200  0.078000  0.111800  1.0  -0.1352
  C  C285  1  0.234600  0.708200  0.292100  1.0  0.1663
  C  C286  1  0.264100  0.605400  0.358100  1.0  0.0602
  C  C287  1  0.306000  0.689000  0.456800  1.0  -0.0902
  C  C288  1  0.279300  0.721400  0.481500  1.0  0.0662
  C  C289  1  0.250000  0.666400  0.483800  1.0  -0.1484
  C  C290  1  0.279700  0.805700  0.497500  1.0  -0.131
  C  C291  1  0.118800  0.660900  0.187900  1.0  0.2531
  C  C292  1  0.139900  0.582300  0.273100  1.0  0.0511
  C  C293  1  0.096100  0.642000  0.312000  1.0  -0.1188
  C  C294  1  0.048100  0.661000  0.282000  1.0  0.0766
  C  C295  1  0.023400  0.587000  0.265000  1.0  -0.1927
  C  C296  1  0.023500  0.735000  0.266000  1.0  -0.1382
  C  C297  1  0.665800  0.058300  0.603300  1.0  0.2179
  C  C298  1  0.620700  0.073700  0.636200  1.0  0.0559
  C  C299  1  0.571600  0.189200  0.565200  1.0  -0.0979
  C  C300  1  0.589700  0.270600  0.602300  1.0  0.0187
  C  C301  1  0.600400  0.277000  0.663900  1.0  -0.1388
  C  C302  1  0.594000  0.345900  0.576700  1.0  -0.1168
  C  C303  1  0.731800  0.595800  0.734100  1.0  0.1549
  C  C304  1  0.711400  0.476700  0.752500  1.0  0.0485
  C  C305  1  0.631700  0.508500  0.709000  1.0  -0.0368
  C  C306  1  0.616900  0.426500  0.672000  1.0  0.0916
  C  C307  1  0.612700  0.350900  0.697500  1.0  -0.2211
  C  C308  1  0.609200  0.422000  0.611800  1.0  -0.1369
  C  C309  1  0.734600  0.791800  0.792100  1.0  0.1662
  C  C310  1  0.764100  0.894600  0.858100  1.0  0.06
  C  C311  1  0.806000  0.811000  0.956800  1.0  -0.0908
  C  C312  1  0.779300  0.778600  0.981500  1.0  0.0661
  C  C313  1  0.750000  0.833600  0.983800  1.0  -0.1445
  C  C314  1  0.779700  0.694300  0.997500  1.0  -0.1309
  C  C315  1  0.618800  0.839100  0.687900  1.0  0.2525
  C  C316  1  0.639900  0.917700  0.773100  1.0  0.0503
  C  C317  1  0.596100  0.858000  0.812000  1.0  -0.1187
  C  C318  1  0.548100  0.839000  0.782000  1.0  0.0765
  C  C319  1  0.523400  0.913000  0.765000  1.0  -0.1985
  C  C320  1  0.523500  0.765000  0.766000  1.0  -0.1378
  C  C321  1  0.165800  0.558300  0.603300  1.0  0.2179
  C  C322  1  0.120700  0.573700  0.636200  1.0  0.0559
  C  C323  1  0.071600  0.689200  0.565200  1.0  -0.0979
  C  C324  1  0.089700  0.770600  0.602300  1.0  0.0187
  C  C325  1  0.100400  0.777000  0.663900  1.0  -0.1388
  C  C326  1  0.094000  0.845900  0.576700  1.0  -0.1168
  C  C327  1  0.231800  0.095800  0.734100  1.0  0.1549
  C  C328  1  0.211400  0.976700  0.752500  1.0  0.0485
  C  C329  1  0.131700  0.008500  0.709000  1.0  -0.0368
  C  C330  1  0.116900  0.926500  0.672000  1.0  0.0916
  C  C331  1  0.112700  0.850900  0.697500  1.0  -0.2211
  C  C332  1  0.109200  0.922000  0.611800  1.0  -0.1369
  C  C333  1  0.234600  0.291800  0.792100  1.0  0.1662
  C  C334  1  0.264100  0.394600  0.858100  1.0  0.06
  C  C335  1  0.306000  0.311000  0.956800  1.0  -0.0908
  C  C336  1  0.279300  0.278600  0.981500  1.0  0.0661
  C  C337  1  0.250000  0.333600  0.983800  1.0  -0.1445
  C  C338  1  0.279700  0.194300  0.997500  1.0  -0.1309
  C  C339  1  0.118800  0.339100  0.687900  1.0  0.2525
  C  C340  1  0.139900  0.417700  0.773100  1.0  0.0503
  C  C341  1  0.096100  0.358000  0.812000  1.0  -0.1187
  C  C342  1  0.048100  0.339000  0.782000  1.0  0.0765
  C  C343  1  0.023400  0.413000  0.765000  1.0  -0.1985
  C  C344  1  0.023500  0.265000  0.766000  1.0  -0.1378
  C  C345  1  0.334200  0.058300  0.896700  1.0  0.2179
  C  C346  1  0.379300  0.073700  0.863800  1.0  0.0547
  C  C347  1  0.428400  0.189200  0.934800  1.0  -0.0977
  C  C348  1  0.410300  0.270600  0.897700  1.0  0.0187
  C  C349  1  0.399600  0.277000  0.836100  1.0  -0.1413
  C  C350  1  0.406000  0.345900  0.923300  1.0  -0.1158
  C  C351  1  0.268200  0.595800  0.765900  1.0  0.1539
  C  C352  1  0.288600  0.476700  0.747500  1.0  0.047
  C  C353  1  0.368300  0.508500  0.791000  1.0  -0.0363
  C  C354  1  0.383100  0.426500  0.828000  1.0  0.0928
  C  C355  1  0.387300  0.350900  0.802500  1.0  -0.2223
  C  C356  1  0.390800  0.422000  0.888200  1.0  -0.1364
  C  C357  1  0.265400  0.791800  0.707900  1.0  0.1667
  C  C358  1  0.235900  0.894600  0.641900  1.0  0.0595
  C  C359  1  0.194000  0.811000  0.543200  1.0  -0.0915
  C  C360  1  0.220700  0.778600  0.518500  1.0  0.0659
  C  C361  1  0.250000  0.833600  0.516200  1.0  -0.1446
  C  C362  1  0.220300  0.694300  0.502500  1.0  -0.1303
  C  C363  1  0.381200  0.839100  0.812100  1.0  0.2535
  C  C364  1  0.360100  0.917700  0.726900  1.0  0.0507
  C  C365  1  0.403900  0.858000  0.688000  1.0  -0.1172
  C  C366  1  0.451900  0.839000  0.718000  1.0  0.0751
  C  C367  1  0.476600  0.913000  0.735000  1.0  -0.1938
  C  C368  1  0.476500  0.765000  0.734000  1.0  -0.139
  C  C369  1  0.834200  0.558300  0.896700  1.0  0.2179
  C  C370  1  0.879300  0.573700  0.863800  1.0  0.0547
  C  C371  1  0.928400  0.689200  0.934800  1.0  -0.0977
  C  C372  1  0.910300  0.770600  0.897700  1.0  0.0187
  C  C373  1  0.899600  0.777000  0.836100  1.0  -0.1413
  C  C374  1  0.906000  0.845900  0.923300  1.0  -0.1158
  C  C375  1  0.768200  0.095800  0.765900  1.0  0.1539
  C  C376  1  0.788600  0.976700  0.747500  1.0  0.047
  C  C377  1  0.868300  0.008500  0.791000  1.0  -0.0363
  C  C378  1  0.883100  0.926500  0.828000  1.0  0.0928
  C  C379  1  0.887300  0.850900  0.802500  1.0  -0.2223
  C  C380  1  0.890800  0.922000  0.888200  1.0  -0.1364
  C  C381  1  0.765400  0.291800  0.707900  1.0  0.1667
  C  C382  1  0.735900  0.394600  0.641900  1.0  0.0595
  C  C383  1  0.694000  0.311000  0.543200  1.0  -0.0915
  C  C384  1  0.720700  0.278600  0.518500  1.0  0.0659
  C  C385  1  0.750000  0.333600  0.516200  1.0  -0.1446
  C  C386  1  0.720300  0.194300  0.502500  1.0  -0.1303
  C  C387  1  0.881200  0.339100  0.812100  1.0  0.2535
  C  C388  1  0.860100  0.417700  0.726900  1.0  0.0507
  C  C389  1  0.903900  0.358000  0.688000  1.0  -0.1172
  C  C390  1  0.951900  0.339000  0.718000  1.0  0.0751
  C  C391  1  0.976600  0.413000  0.735000  1.0  -0.1938
  C  C392  1  0.976500  0.265000  0.734000  1.0  -0.139
  N  N393  1  0.342700  0.968200  0.353300  1.0  -0.307
  N  N394  1  0.365600  0.883500  0.434100  1.0  -0.3046
  N  N395  1  0.393500  0.874000  0.413800  1.0  0.1334
  N  N396  1  0.254400  0.481700  0.242100  1.0  -0.325
  N  N397  1  0.310900  0.397900  0.285900  1.0  -0.284
  N  N398  1  0.323600  0.471500  0.274500  1.0  0.1376
  N  N399  1  0.263800  0.124000  0.201900  1.0  -0.3222
  N  N400  1  0.238600  0.241600  0.151400  1.0  -0.2625
  N  N401  1  0.220400  0.178100  0.110700  1.0  0.1487
  N  N402  1  0.355400  0.092100  0.277100  1.0  -0.3396
  N  N403  1  0.401800  0.193500  0.283400  1.0  -0.2911
  N  N404  1  0.388800  0.144900  0.230800  1.0  0.1258
  N  N405  1  0.842700  0.468200  0.353300  1.0  -0.307
  N  N406  1  0.865600  0.383500  0.434100  1.0  -0.3046
  N  N407  1  0.893500  0.374000  0.413800  1.0  0.1334
  N  N408  1  0.754400  0.981700  0.242100  1.0  -0.325
  N  N409  1  0.810900  0.897900  0.285900  1.0  -0.284
  N  N410  1  0.823600  0.971500  0.274500  1.0  0.1376
  N  N411  1  0.763800  0.624000  0.201900  1.0  -0.3222
  N  N412  1  0.738600  0.741600  0.151400  1.0  -0.2625
  N  N413  1  0.720400  0.678100  0.110700  1.0  0.1487
  N  N414  1  0.855400  0.592100  0.277100  1.0  -0.3396
  N  N415  1  0.901800  0.693500  0.283400  1.0  -0.2911
  N  N416  1  0.888800  0.644900  0.230800  1.0  0.1258
  N  N417  1  0.657300  0.968200  0.146700  1.0  -0.3068
  N  N418  1  0.634400  0.883500  0.065900  1.0  -0.3037
  N  N419  1  0.606500  0.874000  0.086200  1.0  0.1336
  N  N420  1  0.745600  0.481700  0.257900  1.0  -0.3248
  N  N421  1  0.689100  0.397900  0.214100  1.0  -0.283
  N  N422  1  0.676400  0.471500  0.225500  1.0  0.136
  N  N423  1  0.736200  0.124000  0.298100  1.0  -0.3234
  N  N424  1  0.761400  0.241600  0.348600  1.0  -0.2634
  N  N425  1  0.779600  0.178100  0.389300  1.0  0.1482
  N  N426  1  0.644600  0.092100  0.222900  1.0  -0.3409
  N  N427  1  0.598200  0.193500  0.216600  1.0  -0.2897
  N  N428  1  0.611200  0.144900  0.269200  1.0  0.1257
  N  N429  1  0.157300  0.468200  0.146700  1.0  -0.3068
  N  N430  1  0.134400  0.383500  0.065900  1.0  -0.3037
  N  N431  1  0.106500  0.374000  0.086200  1.0  0.1336
  N  N432  1  0.245600  0.981700  0.257900  1.0  -0.3248
  N  N433  1  0.189100  0.897900  0.214100  1.0  -0.283
  N  N434  1  0.176400  0.971500  0.225500  1.0  0.136
  N  N435  1  0.236200  0.624000  0.298100  1.0  -0.3234
  N  N436  1  0.261400  0.741600  0.348600  1.0  -0.2634
  N  N437  1  0.279600  0.678100  0.389300  1.0  0.1482
  N  N438  1  0.144600  0.592100  0.222900  1.0  -0.3409
  N  N439  1  0.098200  0.693500  0.216600  1.0  -0.2897
  N  N440  1  0.111200  0.644900  0.269200  1.0  0.1257
  N  N441  1  0.657300  0.031800  0.646700  1.0  -0.307
  N  N442  1  0.634400  0.116500  0.565900  1.0  -0.3023
  N  N443  1  0.606500  0.126000  0.586200  1.0  0.1326
  N  N444  1  0.745600  0.518300  0.757900  1.0  -0.3245
  N  N445  1  0.689100  0.602100  0.714100  1.0  -0.2853
  N  N446  1  0.676400  0.528500  0.725500  1.0  0.1351
  N  N447  1  0.736200  0.876000  0.798100  1.0  -0.323
  N  N448  1  0.761400  0.758400  0.848600  1.0  -0.2621
  N  N449  1  0.779600  0.821900  0.889300  1.0  0.1486
  N  N450  1  0.644600  0.907900  0.722900  1.0  -0.3408
  N  N451  1  0.598200  0.806500  0.716600  1.0  -0.2903
  N  N452  1  0.611200  0.855100  0.769200  1.0  0.1253
  N  N453  1  0.157300  0.531800  0.646700  1.0  -0.307
  N  N454  1  0.134400  0.616500  0.565900  1.0  -0.3023
  N  N455  1  0.106500  0.626000  0.586200  1.0  0.1326
  N  N456  1  0.245600  0.018300  0.757900  1.0  -0.3245
  N  N457  1  0.189100  0.102100  0.714100  1.0  -0.2853
  N  N458  1  0.176400  0.028500  0.725500  1.0  0.1351
  N  N459  1  0.236200  0.376000  0.798100  1.0  -0.323
  N  N460  1  0.261400  0.258400  0.848600  1.0  -0.2621
  N  N461  1  0.279600  0.321900  0.889300  1.0  0.1486
  N  N462  1  0.144600  0.407900  0.722900  1.0  -0.3408
  N  N463  1  0.098200  0.306500  0.716600  1.0  -0.2903
  N  N464  1  0.111200  0.355100  0.769200  1.0  0.1253
  N  N465  1  0.342700  0.031800  0.853300  1.0  -0.3068
  N  N466  1  0.365600  0.116500  0.934100  1.0  -0.3052
  N  N467  1  0.393500  0.126000  0.913800  1.0  0.1324
  N  N468  1  0.254400  0.518300  0.742100  1.0  -0.3252
  N  N469  1  0.310900  0.602100  0.785900  1.0  -0.2865
  N  N470  1  0.323600  0.528500  0.774500  1.0  0.1375
  N  N471  1  0.263800  0.876000  0.701900  1.0  -0.3233
  N  N472  1  0.238600  0.758400  0.651400  1.0  -0.2623
  N  N473  1  0.220400  0.821900  0.610700  1.0  0.149
  N  N474  1  0.355400  0.907900  0.777100  1.0  -0.3402
  N  N475  1  0.401800  0.806500  0.783400  1.0  -0.292
  N  N476  1  0.388800  0.855100  0.730800  1.0  0.1259
  N  N477  1  0.842700  0.531800  0.853300  1.0  -0.3068
  N  N478  1  0.865600  0.616500  0.934100  1.0  -0.3052
  N  N479  1  0.893500  0.626000  0.913800  1.0  0.1324
  N  N480  1  0.754400  0.018300  0.742100  1.0  -0.3252
  N  N481  1  0.810900  0.102100  0.785900  1.0  -0.2865
  N  N482  1  0.823600  0.028500  0.774500  1.0  0.1375
  N  N483  1  0.763800  0.376000  0.701900  1.0  -0.3233
  N  N484  1  0.738600  0.258400  0.651400  1.0  -0.2623
  N  N485  1  0.720400  0.321900  0.610700  1.0  0.149
  N  N486  1  0.855400  0.407900  0.777100  1.0  -0.3402
  N  N487  1  0.901800  0.306500  0.783400  1.0  -0.292
  N  N488  1  0.888800  0.355100  0.730800  1.0  0.1259
