# generated using pymatgen
data_MnH6C9O4
_symmetry_space_group_name_H-M   'P 1'
_cell_length_a   7.49100000
_cell_length_b   15.38600000
_cell_length_c   11.22600000
_cell_angle_alpha   90.00000000
_cell_angle_beta   90.00000000
_cell_angle_gamma   90.00000000
_symmetry_Int_Tables_number   1
_chemical_formula_structural   MnH6C9O4
_chemical_formula_sum   'Mn4 H24 C36 O16'
_cell_volume   1293.86976088
_cell_formula_units_Z   4
loop_
 _symmetry_equiv_pos_site_id
 _symmetry_equiv_pos_as_xyz
  1  'x, y, z'
loop_
 _atom_site_type_symbol
 _atom_site_label
 _atom_site_symmetry_multiplicity
 _atom_site_fract_x
 _atom_site_fract_y
 _atom_site_fract_z
 _atom_site_occupancy
 _atom_site_charge
  Mn  Mn1  1  0.476690  0.217660  0.357450  1.0  1.1237
  Mn  Mn2  1  0.523310  0.782340  0.857450  1.0  1.1235
  Mn  Mn3  1  0.976690  0.282340  0.357450  1.0  1.1227
  Mn  Mn4  1  0.023310  0.717660  0.857450  1.0  1.1244
  H  H5  1  0.354700  0.485300  0.307800  1.0  0.103
  H  H6  1  0.448900  0.695600  0.108200  1.0  0.101
  H  H7  1  0.807200  0.501700  0.116500  1.0  0.1071
  H  H8  1  0.136100  0.594500  0.305800  1.0  0.136
  H  H9  1  0.120000  0.643400  0.183800  1.0  0.1443
  H  H10  1  0.213900  0.688500  0.292200  1.0  0.1455
  H  H11  1  0.645300  0.514700  0.807800  1.0  0.104
  H  H12  1  0.551100  0.304400  0.608200  1.0  0.1012
  H  H13  1  0.192800  0.498300  0.616500  1.0  0.1072
  H  H14  1  0.863900  0.405500  0.805800  1.0  0.1358
  H  H15  1  0.880000  0.356600  0.683800  1.0  0.144
  H  H16  1  0.786100  0.311500  0.792200  1.0  0.1456
  H  H17  1  0.854700  0.014700  0.307800  1.0  0.1033
  H  H18  1  0.948900  0.804400  0.108200  1.0  0.1012
  H  H19  1  0.307200  0.998300  0.116500  1.0  0.1074
  H  H20  1  0.636100  0.905500  0.305800  1.0  0.1363
  H  H21  1  0.620000  0.856600  0.183800  1.0  0.1444
  H  H22  1  0.713900  0.811500  0.292200  1.0  0.1456
  H  H23  1  0.145300  0.985300  0.807800  1.0  0.1037
  H  H24  1  0.051100  0.195600  0.608200  1.0  0.101
  H  H25  1  0.692800  0.001700  0.616500  1.0  0.1072
  H  H26  1  0.363900  0.094500  0.805800  1.0  0.136
  H  H27  1  0.380000  0.143400  0.683800  1.0  0.1438
  H  H28  1  0.286100  0.188500  0.792200  1.0  0.1457
  C  C29  1  0.647100  0.394090  0.274300  1.0  0.7
  C  C30  1  0.761200  0.655130  0.011400  1.0  0.6568
  C  C31  1  0.590900  0.480030  0.220300  1.0  -0.1567
  C  C32  1  0.427400  0.515960  0.255400  1.0  -0.0527
  C  C33  1  0.371400  0.596400  0.213500  1.0  0.0844
  C  C34  1  0.483100  0.641100  0.135500  1.0  -0.0893
  C  C35  1  0.644400  0.606120  0.097300  1.0  -0.1321
  C  C36  1  0.698800  0.525250  0.140700  1.0  0.0145
  C  C37  1  0.194100  0.634200  0.252400  1.0  -0.3941
  C  C38  1  0.352900  0.605910  0.774300  1.0  0.7001
  C  C39  1  0.238800  0.344870  0.511400  1.0  0.6553
  C  C40  1  0.409100  0.519970  0.720300  1.0  -0.1561
  C  C41  1  0.572600  0.484040  0.755400  1.0  -0.05
  C  C42  1  0.628600  0.403600  0.713500  1.0  0.0839
  C  C43  1  0.516900  0.358900  0.635500  1.0  -0.0882
  C  C44  1  0.355600  0.393880  0.597300  1.0  -0.1327
  C  C45  1  0.301200  0.474750  0.640700  1.0  0.0143
  C  C46  1  0.805900  0.365800  0.752400  1.0  -0.3948
  C  C47  1  0.147100  0.105910  0.274300  1.0  0.699
  C  C48  1  0.261200  0.844870  0.011400  1.0  0.6567
  C  C49  1  0.090900  0.019970  0.220300  1.0  -0.1569
  C  C50  1  0.927400  0.984040  0.255400  1.0  -0.0519
  C  C51  1  0.871400  0.903600  0.213500  1.0  0.0841
  C  C52  1  0.983100  0.858900  0.135500  1.0  -0.0895
  C  C53  1  0.144400  0.893880  0.097300  1.0  -0.1314
  C  C54  1  0.198800  0.974750  0.140700  1.0  0.0139
  C  C55  1  0.694100  0.865800  0.252400  1.0  -0.3942
  C  C56  1  0.852900  0.894090  0.774300  1.0  0.7014
  C  C57  1  0.738800  0.155130  0.511400  1.0  0.6556
  C  C58  1  0.909100  0.980030  0.720300  1.0  -0.1564
  C  C59  1  0.072600  0.015960  0.755400  1.0  -0.0511
  C  C60  1  0.128600  0.096400  0.713500  1.0  0.084
  C  C61  1  0.016900  0.141100  0.635500  1.0  -0.0879
  C  C62  1  0.855600  0.106120  0.597300  1.0  -0.1332
  C  C63  1  0.801200  0.025250  0.640700  1.0  0.0149
  C  C64  1  0.305900  0.134200  0.752400  1.0  -0.3947
  O  O65  1  0.525200  0.349160  0.319400  1.0  -0.6174
  O  O66  1  0.810300  0.375990  0.272400  1.0  -0.6513
  O  O67  1  0.714400  0.731220  0.979700  1.0  -0.6464
  O  O68  1  0.903700  0.622060  0.975800  1.0  -0.5773
  O  O69  1  0.474800  0.650840  0.819400  1.0  -0.6176
  O  O70  1  0.189700  0.624010  0.772400  1.0  -0.6505
  O  O71  1  0.285600  0.268780  0.479700  1.0  -0.6467
  O  O72  1  0.096300  0.377940  0.475800  1.0  -0.5769
  O  O73  1  0.025200  0.150840  0.319400  1.0  -0.6172
  O  O74  1  0.310300  0.124010  0.272400  1.0  -0.6519
  O  O75  1  0.214400  0.768780  0.979700  1.0  -0.6464
  O  O76  1  0.403700  0.877940  0.975800  1.0  -0.5775
  O  O77  1  0.974800  0.849160  0.819400  1.0  -0.6174
  O  O78  1  0.689700  0.875990  0.772400  1.0  -0.6507
  O  O79  1  0.785600  0.231220  0.479700  1.0  -0.6467
  O  O80  1  0.596300  0.122060  0.475800  1.0  -0.5778
