# generated using pymatgen
data_MnH6C9O4
_symmetry_space_group_name_H-M   'P 1'
_cell_length_a   7.28100000
_cell_length_b   10.90300000
_cell_length_c   15.14800000
_cell_angle_alpha   90.00000000
_cell_angle_beta   90.00000000
_cell_angle_gamma   90.00000000
_symmetry_Int_Tables_number   1
_chemical_formula_structural   MnH6C9O4
_chemical_formula_sum   'Mn4 H24 C36 O16'
_cell_volume   1202.52008696
_cell_formula_units_Z   4
loop_
 _symmetry_equiv_pos_site_id
 _symmetry_equiv_pos_as_xyz
  1  'x, y, z'
loop_
 _atom_site_type_symbol
 _atom_site_label
 _atom_site_symmetry_multiplicity
 _atom_site_fract_x
 _atom_site_fract_y
 _atom_site_fract_z
 _atom_site_occupancy
 _atom_site_charge
  Mn  Mn1  1  0.526680  0.099250  0.781530  1.0  1.099
  Mn  Mn2  1  0.973320  0.599250  0.281530  1.0  1.098
  Mn  Mn3  1  0.473320  0.599250  0.218470  1.0  1.0971
  Mn  Mn4  1  0.026680  0.099250  0.718470  1.0  1.098
  H  H5  1  0.702000  0.498000  0.799700  1.0  0.1479
  H  H6  1  0.903400  0.937700  0.381700  1.0  0.1512
  H  H7  1  0.689600  0.855800  0.999700  1.0  0.1268
  H  H8  1  0.152900  0.052300  0.984300  1.0  0.1212
  H  H9  1  0.652900  0.052300  0.515700  1.0  0.1209
  H  H10  1  0.660800  0.578000  0.886100  1.0  0.149
  H  H11  1  0.310400  0.355800  0.000300  1.0  0.1271
  H  H12  1  0.449500  0.350600  0.698600  1.0  0.1063
  H  H13  1  0.839200  0.078000  0.386100  1.0  0.1494
  H  H14  1  0.847100  0.552300  0.015700  1.0  0.1207
  H  H15  1  0.403400  0.937700  0.118300  1.0  0.1515
  H  H16  1  0.798000  0.998000  0.299700  1.0  0.1478
  H  H17  1  0.339200  0.078000  0.113900  1.0  0.1498
  H  H18  1  0.298000  0.998000  0.200300  1.0  0.1477
  H  H19  1  0.202000  0.498000  0.700300  1.0  0.1481
  H  H20  1  0.810400  0.355800  0.499700  1.0  0.1271
  H  H21  1  0.949500  0.350600  0.801400  1.0  0.1061
  H  H22  1  0.050500  0.850600  0.198600  1.0  0.1062
  H  H23  1  0.347100  0.552300  0.484300  1.0  0.1212
  H  H24  1  0.189600  0.855800  0.500300  1.0  0.1266
  H  H25  1  0.596600  0.437700  0.881700  1.0  0.1513
  H  H26  1  0.096600  0.437700  0.618300  1.0  0.1515
  H  H27  1  0.550500  0.850600  0.301400  1.0  0.1058
  H  H28  1  0.160800  0.578000  0.613900  1.0  0.1496
  C  C29  1  0.764300  0.253750  0.655150  1.0  0.6723
  C  C30  1  0.356200  0.015490  0.605700  1.0  0.7207
  C  C31  1  0.515700  0.878670  0.358390  1.0  -0.1301
  C  C32  1  0.575400  0.997950  0.483830  1.0  -0.1289
  C  C33  1  0.645700  0.339370  0.606230  1.0  -0.1073
  C  C34  1  0.143800  0.515490  0.105700  1.0  0.7202
  C  C35  1  0.735700  0.753750  0.155150  1.0  0.6707
  C  C36  1  0.912200  0.961830  0.979980  1.0  -0.1139
  C  C37  1  0.856200  0.015490  0.894300  1.0  0.721
  C  C38  1  0.354300  0.839370  0.393770  1.0  -0.1068
  C  C39  1  0.484300  0.378670  0.641610  1.0  -0.1298
  C  C40  1  0.145700  0.339370  0.893770  1.0  -0.1067
  C  C41  1  0.197600  0.381950  0.975120  1.0  -0.0616
  C  C42  1  0.587800  0.461830  0.479980  1.0  -0.1142
  C  C43  1  0.697600  0.381950  0.524880  1.0  -0.0603
  C  C44  1  0.371000  0.457270  0.597430  1.0  0.074
  C  C45  1  0.871000  0.457270  0.902570  1.0  0.059
  C  C46  1  0.643800  0.515490  0.394300  1.0  0.7192
  C  C47  1  0.015700  0.878670  0.141610  1.0  -0.1295
  C  C48  1  0.854300  0.839370  0.106230  1.0  -0.1078
  C  C49  1  0.307600  0.996100  0.135740  1.0  -0.3941
  C  C50  1  0.302400  0.881950  0.475120  1.0  -0.0626
  C  C51  1  0.129000  0.957270  0.097430  1.0  0.0735
  C  C52  1  0.692400  0.496100  0.864260  1.0  -0.3924
  C  C53  1  0.087800  0.461830  0.020020  1.0  -0.1139
  C  C54  1  0.802400  0.881950  0.024880  1.0  -0.0614
  C  C55  1  0.424600  0.497950  0.516170  1.0  -0.1278
  C  C56  1  0.412200  0.961830  0.520020  1.0  -0.1132
  C  C57  1  0.984300  0.378670  0.858390  1.0  -0.1307
  C  C58  1  0.235700  0.753750  0.344850  1.0  0.6704
  C  C59  1  0.192400  0.496100  0.635740  1.0  -0.3932
  C  C60  1  0.075400  0.997950  0.016170  1.0  -0.1266
  C  C61  1  0.629000  0.957270  0.402570  1.0  0.0734
  C  C62  1  0.264300  0.253750  0.844850  1.0  0.672
  C  C63  1  0.924600  0.497950  0.983830  1.0  -0.1272
  C  C64  1  0.807600  0.996100  0.364260  1.0  -0.3942
  O  O65  1  0.092060  0.717870  0.378330  1.0  -0.5702
  O  O66  1  0.781100  0.723010  0.231150  1.0  -0.6349
  O  O67  1  0.192170  0.013150  0.624740  1.0  -0.6296
  O  O68  1  0.407940  0.217870  0.878330  1.0  -0.5701
  O  O69  1  0.020590  0.561460  0.150170  1.0  -0.5925
  O  O70  1  0.807830  0.513150  0.375260  1.0  -0.6324
  O  O71  1  0.979410  0.061460  0.849830  1.0  -0.5925
  O  O72  1  0.592060  0.717870  0.121670  1.0  -0.5694
  O  O73  1  0.907940  0.217870  0.621670  1.0  -0.5698
  O  O74  1  0.718900  0.223010  0.731150  1.0  -0.6346
  O  O75  1  0.520590  0.561460  0.349830  1.0  -0.5931
  O  O76  1  0.479410  0.061460  0.650170  1.0  -0.5911
  O  O77  1  0.281100  0.723010  0.268850  1.0  -0.6364
  O  O78  1  0.692170  0.013150  0.875260  1.0  -0.6306
  O  O79  1  0.218900  0.223010  0.768850  1.0  -0.636
  O  O80  1  0.307830  0.513150  0.124740  1.0  -0.632
