# generated using pymatgen
data_Cu2H32C45(IN2)2
_symmetry_space_group_name_H-M   'P 1'
_cell_length_a   7.11100000
_cell_length_b   19.45490000
_cell_length_c   19.45490000
_cell_angle_alpha   88.08600000
_cell_angle_beta   79.46980000
_cell_angle_gamma   79.46970000
_symmetry_Int_Tables_number   1
_chemical_formula_structural   Cu2H32C45(IN2)2
_chemical_formula_sum   'Cu4 H64 C90 I4 N8'
_cell_volume   2601.57176995
_cell_formula_units_Z   2
loop_
 _symmetry_equiv_pos_site_id
 _symmetry_equiv_pos_as_xyz
  1  'x, y, z'
loop_
 _atom_site_type_symbol
 _atom_site_label
 _atom_site_symmetry_multiplicity
 _atom_site_fract_x
 _atom_site_fract_y
 _atom_site_fract_z
 _atom_site_occupancy
 _atom_site_charge
  Cu  Cu1  1  0.875000  0.050200  0.449800  1.0  0.2194
  Cu  Cu2  1  0.375000  0.949800  0.550200  1.0  0.2183
  Cu  Cu3  1  0.675200  0.449800  0.949800  1.0  0.2211
  Cu  Cu4  1  0.074800  0.550200  0.050200  1.0  0.2171
  H  H5  1  0.850500  0.207600  0.425800  1.0  0.0835
  H  H6  1  0.613100  0.309600  0.442800  1.0  0.1126
  H  H7  1  0.211300  0.188800  0.497200  1.0  0.0988
  H  H8  1  0.450000  0.089800  0.476400  1.0  0.0624
  H  H9  1  0.049500  0.282200  0.560800  1.0  0.1113
  H  H10  1  0.796900  0.376200  0.574000  1.0  0.1025
  H  H11  1  0.093600  0.475000  0.416000  1.0  0.0829
  H  H12  1  0.345900  0.380000  0.400800  1.0  0.1073
  H  H13  1  0.483900  0.792400  0.574200  1.0  0.0827
  H  H14  1  0.365500  0.690400  0.557200  1.0  0.1125
  H  H15  1  0.897300  0.811200  0.502800  1.0  0.0984
  H  H16  1  0.016200  0.910200  0.523600  1.0  0.0621
  H  H17  1  0.892500  0.717800  0.439200  1.0  0.1114
  H  H18  1  0.747100  0.623800  0.426000  1.0  0.1029
  H  H19  1  0.984600  0.525000  0.584000  1.0  0.0849
  H  H20  1  0.126700  0.620000  0.599200  1.0  0.1071
  H  H21  1  0.723700  0.425800  0.792400  1.0  0.0826
  H  H22  1  0.944100  0.442800  0.690400  1.0  0.1128
  H  H23  1  0.291500  0.497200  0.811200  1.0  0.0982
  H  H24  1  0.073600  0.476400  0.910200  1.0  0.0607
  H  H25  1  0.389700  0.560800  0.717800  1.0  0.1114
  H  H26  1  0.629100  0.574000  0.623800  1.0  0.1017
  H  H27  1  0.490400  0.416000  0.525000  1.0  0.0838
  H  H28  1  0.253300  0.400800  0.620000  1.0  0.1081
  H  H29  1  0.941900  0.574200  0.207600  1.0  0.0827
  H  H30  1  0.077300  0.557200  0.309600  1.0  0.1122
  H  H31  1  0.599900  0.502800  0.188800  1.0  0.0977
  H  H32  1  0.460200  0.523600  0.089800  1.0  0.0615
  H  H33  1  0.668300  0.439200  0.282200  1.0  0.1114
  H  H34  1  0.826900  0.426000  0.376200  1.0  0.1023
  H  H35  1  0.431400  0.584000  0.475000  1.0  0.0841
  H  H36  1  0.274100  0.599200  0.380000  1.0  0.1094
  H  H37  1  0.899500  0.074200  0.292400  1.0  0.0826
  H  H38  1  0.136900  0.057200  0.190400  1.0  0.1125
  H  H39  1  0.538700  0.002800  0.311200  1.0  0.0983
  H  H40  1  0.300000  0.023600  0.410200  1.0  0.061
  H  H41  1  0.700500  0.939200  0.217800  1.0  0.1115
  H  H42  1  0.953100  0.926000  0.123800  1.0  0.1025
  H  H43  1  0.656400  0.084000  0.025000  1.0  0.0858
  H  H44  1  0.404100  0.099200  0.120000  1.0  0.1087
  H  H45  1  0.266100  0.925800  0.707600  1.0  0.0828
  H  H46  1  0.384500  0.942800  0.809600  1.0  0.1117
  H  H47  1  0.852700  0.997200  0.688800  1.0  0.0982
  H  H48  1  0.733800  0.976400  0.589800  1.0  0.061
  H  H49  1  0.857500  0.060800  0.782200  1.0  0.1117
  H  H50  1  0.002900  0.074000  0.876200  1.0  0.102
  H  H51  1  0.765400  0.916000  0.975000  1.0  0.0836
  H  H52  1  0.623300  0.900800  0.880000  1.0  0.1084
  H  H53  1  0.026300  0.707600  0.074200  1.0  0.0826
  H  H54  1  0.805900  0.809600  0.057200  1.0  0.1135
  H  H55  1  0.458500  0.688800  0.002800  1.0  0.0983
  H  H56  1  0.676400  0.589800  0.023600  1.0  0.0622
  H  H57  1  0.360300  0.782200  0.939200  1.0  0.111
  H  H58  1  0.120900  0.876200  0.926000  1.0  0.1027
  H  H59  1  0.259600  0.975000  0.084000  1.0  0.0846
  H  H60  1  0.496700  0.880000  0.099200  1.0  0.1071
  H  H61  1  0.808100  0.292400  0.925800  1.0  0.0835
  H  H62  1  0.672700  0.190400  0.942800  1.0  0.1123
  H  H63  1  0.150100  0.311200  0.997200  1.0  0.0988
  H  H64  1  0.289800  0.410200  0.976400  1.0  0.0614
  H  H65  1  0.081700  0.217800  0.060800  1.0  0.1113
  H  H66  1  0.923100  0.123800  0.074000  1.0  0.1022
  H  H67  1  0.318600  0.025000  0.916000  1.0  0.0832
  H  H68  1  0.475900  0.120000  0.900800  1.0  0.1069
  C  C69  1  0.718400  0.204000  0.442400  1.0  0.1268
  C  C70  1  0.576900  0.265000  0.451000  1.0  -0.2042
  C  C71  1  0.385000  0.259200  0.471400  1.0  0.0984
  C  C72  1  0.342900  0.193900  0.482300  1.0  -0.1847
  C  C73  1  0.485200  0.134700  0.472300  1.0  0.1604
  C  C74  1  0.222500  0.320500  0.479300  1.0  0.032
  C  C75  1  0.057700  0.321300  0.530700  1.0  -0.1055
  C  C76  1  0.907500  0.377100  0.538500  1.0  -0.1244
  C  C77  1  0.914700  0.435300  0.494900  1.0  0.0285
  C  C78  1  0.083300  0.434900  0.444900  1.0  -0.1091
  C  C79  1  0.234500  0.379000  0.436000  1.0  -0.1129
  C  C80  1  0.364800  0.796000  0.557600  1.0  0.1276
  C  C81  1  0.292900  0.735000  0.549000  1.0  -0.2051
  C  C82  1  0.115600  0.740800  0.528600  1.0  0.0981
  C  C83  1  0.019100  0.806100  0.517700  1.0  -0.1837
  C  C84  1  0.092200  0.865300  0.527700  1.0  0.1598
  C  C85  1  0.022300  0.679500  0.520700  1.0  0.0296
  C  C86  1  0.909700  0.678700  0.469300  1.0  -0.1058
  C  C87  1  0.823100  0.622900  0.461500  1.0  -0.1266
  C  C88  1  0.844900  0.564700  0.505100  1.0  0.0282
  C  C89  1  0.963100  0.565100  0.555100  1.0  -0.1089
  C  C90  1  0.049500  0.621000  0.564000  1.0  -0.1162
  C  C91  1  0.839200  0.442400  0.796000  1.0  0.1268
  C  C92  1  0.972100  0.451000  0.735000  1.0  -0.2048
  C  C93  1  0.143600  0.471400  0.740800  1.0  0.099
  C  C94  1  0.174800  0.482300  0.806100  1.0  -0.1856
  C  C95  1  0.042500  0.472300  0.865300  1.0  0.162
  C  C96  1  0.298200  0.479300  0.679500  1.0  0.0258
  C  C97  1  0.411600  0.530700  0.678700  1.0  -0.1062
  C  C98  1  0.554000  0.538500  0.622900  1.0  -0.1261
  C  C99  1  0.590400  0.494900  0.564700  1.0  0.0279
  C  C100  1  0.471800  0.444900  0.565100  1.0  -0.1087
  C  C101  1  0.329500  0.436000  0.621000  1.0  -0.1163
  C  C102  1  0.077600  0.557600  0.204000  1.0  0.127
  C  C103  1  0.158100  0.549000  0.265000  1.0  -0.2014
  C  C104  1  0.355800  0.528600  0.259200  1.0  0.097
  C  C105  1  0.463200  0.517700  0.193900  1.0  -0.1859
  C  C106  1  0.380100  0.527700  0.134700  1.0  0.1625
  C  C107  1  0.457000  0.520700  0.320500  1.0  0.0243
  C  C108  1  0.621000  0.469300  0.321300  1.0  -0.109
  C  C109  1  0.715400  0.461500  0.377100  1.0  -0.1275
  C  C110  1  0.650000  0.505100  0.435300  1.0  0.028
  C  C111  1  0.481800  0.555100  0.434900  1.0  -0.1103
  C  C112  1  0.386500  0.564000  0.379000  1.0  -0.1159
  C  C113  1  0.031600  0.057600  0.296000  1.0  0.1267
  C  C114  1  0.173100  0.049000  0.235000  1.0  -0.2048
  C  C115  1  0.365000  0.028600  0.240800  1.0  0.0991
  C  C116  1  0.407100  0.017700  0.306100  1.0  -0.1855
  C  C117  1  0.264800  0.027700  0.365300  1.0  0.1617
  C  C118  1  0.527500  0.020700  0.179500  1.0  0.0257
  C  C119  1  0.692300  0.969300  0.178700  1.0  -0.1051
  C  C120  1  0.842500  0.961500  0.122900  1.0  -0.1263
  C  C121  1  0.835300  0.005100  0.064700  1.0  0.0281
  C  C122  1  0.666667  0.055100  0.065100  1.0  -0.1085
  C  C123  1  0.515500  0.064000  0.121000  1.0  -0.1192
  C  C124  1  0.385200  0.942400  0.704000  1.0  0.127
  C  C125  1  0.457100  0.951000  0.765000  1.0  -0.2011
  C  C126  1  0.634400  0.971400  0.759200  1.0  0.097
  C  C127  1  0.730900  0.982300  0.693900  1.0  -0.1859
  C  C128  1  0.657800  0.972300  0.634700  1.0  0.1628
  C  C129  1  0.727700  0.979300  0.820500  1.0  0.0241
  C  C130  1  0.840300  0.030700  0.821300  1.0  -0.11
  C  C131  1  0.926900  0.038500  0.877100  1.0  -0.1281
  C  C132  1  0.905100  0.994900  0.935300  1.0  0.0283
  C  C133  1  0.786900  0.944900  0.934900  1.0  -0.1113
  C  C134  1  0.700500  0.936000  0.879000  1.0  -0.1167
  C  C135  1  0.910800  0.704000  0.057600  1.0  0.1282
  C  C136  1  0.777900  0.765000  0.049000  1.0  -0.2038
  C  C137  1  0.606400  0.759200  0.028600  1.0  0.0982
  C  C138  1  0.575200  0.693900  0.017700  1.0  -0.1837
  C  C139  1  0.707500  0.634700  0.027700  1.0  0.1611
  C  C140  1  0.451800  0.820500  0.020700  1.0  0.0316
  C  C141  1  0.338400  0.821300  0.969300  1.0  -0.1047
  C  C142  1  0.196000  0.877100  0.961500  1.0  -0.1253
  C  C143  1  0.159600  0.935300  0.005100  1.0  0.0284
  C  C144  1  0.278200  0.934900  0.055100  1.0  -0.1082
  C  C145  1  0.420500  0.879000  0.064000  1.0  -0.1142
  C  C146  1  0.672400  0.296000  0.942400  1.0  0.1268
  C  C147  1  0.591900  0.235000  0.951000  1.0  -0.2053
  C  C148  1  0.394200  0.240800  0.971400  1.0  0.0986
  C  C149  1  0.286800  0.306100  0.982300  1.0  -0.1849
  C  C150  1  0.369900  0.365300  0.972300  1.0  0.1593
  C  C151  1  0.293000  0.179500  0.979300  1.0  0.0302
  C  C152  1  0.129000  0.178700  0.030700  1.0  -0.1062
  C  C153  1  0.034600  0.122900  0.038500  1.0  -0.1251
  C  C154  1  0.100000  0.064700  0.994900  1.0  0.0282
  C  C155  1  0.268200  0.065100  0.944900  1.0  -0.1089
  C  C156  1  0.363500  0.121000  0.936000  1.0  -0.1135
  C  C157  1  0.750000  0.500000  0.500000  1.0  0.0062
  C  C158  1  0.000000  0.000000  0.000000  1.0  0.006
  I  I159  1  0.678070  0.946930  0.446930  1.0  -0.4165
  I  I160  1  0.071930  0.053070  0.553070  1.0  -0.4145
  I  I161  1  0.875000  0.446930  0.053070  1.0  -0.4154
  I  I162  1  0.375000  0.553070  0.946930  1.0  -0.4156
  N  N163  1  0.671600  0.140700  0.456900  1.0  -0.2592
  N  N164  1  0.269200  0.859300  0.543100  1.0  -0.2589
  N  N165  1  0.871500  0.456900  0.859300  1.0  -0.2618
  N  N166  1  0.187700  0.543100  0.140700  1.0  -0.2616
  N  N167  1  0.078400  0.043100  0.359300  1.0  -0.2619
  N  N168  1  0.480800  0.956900  0.640700  1.0  -0.2616
  N  N169  1  0.878500  0.640700  0.043100  1.0  -0.2589
  N  N170  1  0.562300  0.359300  0.956900  1.0  -0.2594
