# generated using pymatgen
data_LiZn(CN)4
_symmetry_space_group_name_H-M   'P 1'
_cell_length_a   11.77390000
_cell_length_b   11.77390000
_cell_length_c   11.77390000
_cell_angle_alpha   90.00000000
_cell_angle_beta   90.00000000
_cell_angle_gamma   90.00000000
_symmetry_Int_Tables_number   1
_chemical_formula_structural   LiZn(CN)4
_chemical_formula_sum   'Li4 Zn4 C16 N16'
_cell_volume   1632.15360505
_cell_formula_units_Z   4
loop_
 _symmetry_equiv_pos_site_id
 _symmetry_equiv_pos_as_xyz
  1  'x, y, z'
loop_
 _atom_site_type_symbol
 _atom_site_label
 _atom_site_symmetry_multiplicity
 _atom_site_fract_x
 _atom_site_fract_y
 _atom_site_fract_z
 _atom_site_occupancy
 _atom_site_charge
  Li  Li1  1  0.250000  0.250000  0.250000  1.0  0.8061
  Li  Li2  1  0.750000  0.750000  0.250000  1.0  0.8061
  Li  Li3  1  0.750000  0.250000  0.750000  1.0  0.8061
  Li  Li4  1  0.250000  0.750000  0.750000  1.0  0.8061
  Zn  Zn5  1  0.000000  0.000000  0.000000  1.0  0.7482
  Zn  Zn6  1  0.000000  0.500000  0.500000  1.0  0.7482
  Zn  Zn7  1  0.500000  0.000000  0.500000  1.0  0.7482
  Zn  Zn8  1  0.500000  0.500000  0.000000  1.0  0.7482
  C  C9  1  0.154900  0.154900  0.154900  1.0  0.0682
  C  C10  1  0.154900  0.654900  0.654900  1.0  0.0682
  C  C11  1  0.654900  0.154900  0.654900  1.0  0.0682
  C  C12  1  0.654900  0.654900  0.154900  1.0  0.0682
  C  C13  1  0.845100  0.845100  0.154900  1.0  0.0698
  C  C14  1  0.845100  0.345100  0.654900  1.0  0.0698
  C  C15  1  0.345100  0.845100  0.654900  1.0  0.0698
  C  C16  1  0.345100  0.345100  0.154900  1.0  0.0698
  C  C17  1  0.845100  0.154900  0.845100  1.0  0.0698
  C  C18  1  0.845100  0.654900  0.345100  1.0  0.0698
  C  C19  1  0.345100  0.154900  0.345100  1.0  0.0698
  C  C20  1  0.345100  0.654900  0.845100  1.0  0.0698
  C  C21  1  0.154900  0.845100  0.845100  1.0  0.0669
  C  C22  1  0.154900  0.345100  0.345100  1.0  0.0669
  C  C23  1  0.654900  0.845100  0.345100  1.0  0.0669
  C  C24  1  0.654900  0.345100  0.845100  1.0  0.0669
  N  N25  1  0.101300  0.101300  0.101300  1.0  -0.4565
  N  N26  1  0.101300  0.601300  0.601300  1.0  -0.4565
  N  N27  1  0.601300  0.101300  0.601300  1.0  -0.4565
  N  N28  1  0.601300  0.601300  0.101300  1.0  -0.4565
  N  N29  1  0.898700  0.898700  0.101300  1.0  -0.4577
  N  N30  1  0.898700  0.398700  0.601300  1.0  -0.4577
  N  N31  1  0.398700  0.898700  0.601300  1.0  -0.4577
  N  N32  1  0.398700  0.398700  0.101300  1.0  -0.4577
  N  N33  1  0.898700  0.101300  0.898700  1.0  -0.4578
  N  N34  1  0.898700  0.601300  0.398700  1.0  -0.4578
  N  N35  1  0.398700  0.101300  0.398700  1.0  -0.4578
  N  N36  1  0.398700  0.601300  0.898700  1.0  -0.4578
  N  N37  1  0.101300  0.898700  0.898700  1.0  -0.457
  N  N38  1  0.101300  0.398700  0.398700  1.0  -0.457
  N  N39  1  0.601300  0.898700  0.398700  1.0  -0.457
  N  N40  1  0.601300  0.398700  0.898700  1.0  -0.457
