# generated using pymatgen
data_CdN9
_symmetry_space_group_name_H-M   'P 1'
_cell_length_a   15.69200000
_cell_length_b   8.83350000
_cell_length_c   9.52900000
_cell_angle_alpha   90.00000000
_cell_angle_beta   125.56000000
_cell_angle_gamma   90.00000000
_symmetry_Int_Tables_number   1
_chemical_formula_structural   CdN9
_chemical_formula_sum   'Cd4 N36'
_cell_volume   1074.53289057
_cell_formula_units_Z   4
loop_
 _symmetry_equiv_pos_site_id
 _symmetry_equiv_pos_as_xyz
  1  'x, y, z'
loop_
 _atom_site_type_symbol
 _atom_site_label
 _atom_site_symmetry_multiplicity
 _atom_site_fract_x
 _atom_site_fract_y
 _atom_site_fract_z
 _atom_site_occupancy
 _atom_site_charge
  Cd  Cd1  1  0.250000  0.250000  0.000000  1.0  1.0684
  Cd  Cd2  1  0.750000  0.250000  0.500000  1.0  1.0684
  Cd  Cd3  1  0.750000  0.750000  0.000000  1.0  1.0684
  Cd  Cd4  1  0.250000  0.750000  0.500000  1.0  1.0684
  N  N5  1  0.204220  0.033900  0.084600  1.0  -0.405
  N  N6  1  0.248700  0.968000  0.216300  1.0  0.4543
  N  N7  1  0.292830  0.898900  0.345200  1.0  -0.4118
  N  N8  1  0.422760  0.228700  0.242800  1.0  -0.385
  N  N9  1  0.704220  0.533900  0.084600  1.0  -0.405
  N  N10  1  0.748700  0.468000  0.216300  1.0  0.4543
  N  N11  1  0.792830  0.398900  0.345200  1.0  -0.4118
  N  N12  1  0.922760  0.728700  0.242800  1.0  -0.385
  N  N13  1  0.795780  0.033900  0.415400  1.0  -0.4027
  N  N14  1  0.751300  0.968000  0.283700  1.0  0.4496
  N  N15  1  0.707170  0.898900  0.154800  1.0  -0.4113
  N  N16  1  0.577240  0.228700  0.257200  1.0  -0.3831
  N  N17  1  0.295780  0.533900  0.415400  1.0  -0.4027
  N  N18  1  0.251300  0.468000  0.283700  1.0  0.4496
  N  N19  1  0.207170  0.398900  0.154800  1.0  -0.4113
  N  N20  1  0.077240  0.728700  0.257200  1.0  -0.3831
  N  N21  1  0.795780  0.966100  0.915400  1.0  -0.403
  N  N22  1  0.751300  0.032000  0.783700  1.0  0.4485
  N  N23  1  0.707170  0.101100  0.654800  1.0  -0.411
  N  N24  1  0.577240  0.771300  0.757200  1.0  -0.3821
  N  N25  1  0.295780  0.466100  0.915400  1.0  -0.403
  N  N26  1  0.251300  0.532000  0.783700  1.0  0.4485
  N  N27  1  0.207170  0.601100  0.654800  1.0  -0.411
  N  N28  1  0.077240  0.271300  0.757200  1.0  -0.3821
  N  N29  1  0.204220  0.966100  0.584600  1.0  -0.4046
  N  N30  1  0.248700  0.032000  0.716300  1.0  0.4468
  N  N31  1  0.292830  0.101100  0.845200  1.0  -0.4115
  N  N32  1  0.422760  0.771300  0.742800  1.0  -0.3844
  N  N33  1  0.704220  0.466100  0.584600  1.0  -0.4046
  N  N34  1  0.748700  0.532000  0.716300  1.0  0.4468
  N  N35  1  0.792830  0.601100  0.845200  1.0  -0.4115
  N  N36  1  0.922760  0.271300  0.742800  1.0  -0.3844
  N  N37  1  0.500000  0.230000  0.250000  1.0  0.4314
  N  N38  1  0.000000  0.730000  0.250000  1.0  0.4314
  N  N39  1  0.500000  0.770000  0.750000  1.0  0.4283
  N  N40  1  0.000000  0.270000  0.750000  1.0  0.4283
