# generated using pymatgen
data_Zn3H24C42N14O9
_symmetry_space_group_name_H-M   'P 1'
_cell_length_a   19.80100000
_cell_length_b   20.16200000
_cell_length_c   27.22500000
_cell_angle_alpha   97.54400000
_cell_angle_beta   100.60900000
_cell_angle_gamma   111.62700000
_symmetry_Int_Tables_number   1
_chemical_formula_structural   Zn3H24C42N14O9
_chemical_formula_sum   'Zn18 H144 C252 N84 O54'
_cell_volume   9692.38031673
_cell_formula_units_Z   6
loop_
 _symmetry_equiv_pos_site_id
 _symmetry_equiv_pos_as_xyz
  1  'x, y, z'
loop_
 _atom_site_type_symbol
 _atom_site_label
 _atom_site_symmetry_multiplicity
 _atom_site_fract_x
 _atom_site_fract_y
 _atom_site_fract_z
 _atom_site_occupancy
 _atom_site_charge
  Zn  Zn1  1  0.554890  0.264880  0.880370  1.0  0.8676
  Zn  Zn2  1  0.062650  0.668820  0.193640  1.0  0.9357
  Zn  Zn3  1  0.473310  0.963880  0.675300  1.0  0.9666
  Zn  Zn4  1  0.161660  0.762430  0.571250  1.0  0.9094
  Zn  Zn5  1  0.040320  0.890180  0.349860  1.0  0.9301
  Zn  Zn6  1  0.703540  0.367910  0.096310  1.0  0.9328
  Zn  Zn7  1  0.453590  0.111280  0.668280  1.0  0.9266
  Zn  Zn8  1  0.861400  0.358830  0.100110  1.0  0.9298
  Zn  Zn9  1  0.932850  0.782220  0.406670  1.0  0.9887
  Zn  Zn10  1  0.445110  0.735120  0.119630  1.0  0.8675
  Zn  Zn11  1  0.937350  0.331180  0.806360  1.0  0.9342
  Zn  Zn12  1  0.526690  0.036120  0.324700  1.0  0.9657
  Zn  Zn13  1  0.838340  0.237570  0.428750  1.0  0.9087
  Zn  Zn14  1  0.959680  0.109820  0.650140  1.0  0.9323
  Zn  Zn15  1  0.296460  0.632090  0.903690  1.0  0.9336
  Zn  Zn16  1  0.546410  0.888720  0.331720  1.0  0.9271
  Zn  Zn17  1  0.138600  0.641170  0.899890  1.0  0.9307
  Zn  Zn18  1  0.067150  0.217780  0.593330  1.0  0.988
  H  H19  1  0.340700  0.929400  0.519100  1.0  0.3554
  H  H20  1  0.288600  0.868700  0.539500  1.0  0.3224
  H  H21  1  0.920900  0.495100  0.260900  1.0  0.3541
  H  H22  1  0.980600  0.547100  0.239800  1.0  0.3385
  H  H23  1  0.867100  0.724800  0.176500  1.0  0.3676
  H  H24  1  0.940000  0.716500  0.174400  1.0  0.3297
  H  H25  1  0.765400  0.242900  0.849100  1.0  0.3375
  H  H26  1  0.695300  0.257700  0.849400  1.0  0.3359
  H  H27  1  0.612700  0.081600  0.925300  1.0  0.3498
  H  H28  1  0.585600  0.142400  0.919000  1.0  0.3344
  H  H29  1  0.085800  0.936100  0.597200  1.0  0.359
  H  H30  1  0.101000  0.867700  0.599800  1.0  0.3329
  H  H31  1  0.545100  0.445500  0.800100  1.0  0.1239
  H  H32  1  0.572100  0.532500  0.750500  1.0  0.1248
  H  H33  1  0.702700  0.445700  0.691500  1.0  0.1323
  H  H34  1  0.672500  0.357800  0.740600  1.0  0.1226
  H  H35  1  0.547000  0.662200  0.706000  1.0  0.1292
  H  H36  1  0.626700  0.858400  0.629100  1.0  0.109
  H  H37  1  0.685300  0.777000  0.627700  1.0  0.1303
  H  H38  1  0.841800  0.747800  0.630600  1.0  0.1187
  H  H39  1  0.955200  0.771800  0.607500  1.0  0.1087
  H  H40  1  0.932300  0.566300  0.609100  1.0  0.1266
  H  H41  1  0.821500  0.542300  0.633300  1.0  0.1116
  H  H42  1  0.062800  0.090500  0.292000  1.0  0.1322
  H  H43  1  0.110500  0.194000  0.259300  1.0  0.1146
  H  H44  1  0.272300  0.135200  0.226800  1.0  0.1193
  H  H45  1  0.225300  0.031400  0.258700  1.0  0.1245
  H  H46  1  0.126800  0.365500  0.246100  1.0  0.1074
  H  H47  1  0.091700  0.462800  0.255800  1.0  0.1302
  H  H48  1  0.198100  0.541100  0.150100  1.0  0.116
  H  H49  1  0.242800  0.448000  0.144700  1.0  0.1269
  H  H50  1  0.370300  0.397800  0.122100  1.0  0.123
  H  H51  1  0.474500  0.415800  0.090800  1.0  0.1256
  H  H52  1  0.501200  0.251100  0.148200  1.0  0.1214
  H  H53  1  0.393600  0.228900  0.177000  1.0  0.1242
  H  H54  1  0.378500  0.276000  0.961600  1.0  0.1185
  H  H55  1  0.290500  0.248900  0.010100  1.0  0.1207
  H  H56  1  0.341400  0.083900  0.044200  1.0  0.1267
  H  H57  1  0.429100  0.110400  0.996500  1.0  0.1188
  H  H58  1  0.158700  0.277600  0.051600  1.0  0.1317
  H  H59  1  0.086600  0.343600  0.058200  1.0  0.1209
  H  H60  1  0.972800  0.210200  0.141200  1.0  0.141
  H  H61  1  0.043500  0.142400  0.132700  1.0  0.1025
  H  H62  1  0.059100  0.980300  0.123200  1.0  0.1318
  H  H63  1  0.030700  0.869200  0.148400  1.0  0.1159
  H  H64  1  0.241100  0.888000  0.158000  1.0  0.1187
  H  H65  1  0.266900  0.994400  0.128000  1.0  0.1041
  H  H66  1  0.727600  0.746100  0.459000  1.0  0.1149
  H  H67  1  0.625500  0.701700  0.495100  1.0  0.1317
  H  H68  1  0.695700  0.545100  0.530600  1.0  0.121
  H  H69  1  0.795300  0.592000  0.493000  1.0  0.1242
  H  H70  1  0.429300  0.441600  0.633400  1.0  0.1276
  H  H71  1  0.409000  0.337900  0.665200  1.0  0.1267
  H  H72  1  0.562200  0.299400  0.602100  1.0  0.1359
  H  H73  1  0.586200  0.408800  0.571100  1.0  0.1197
  H  H74  1  0.476800  0.707500  0.529800  1.0  0.1222
  H  H75  1  0.388100  0.754400  0.528100  1.0  0.1095
  H  H76  1  0.271500  0.602100  0.592900  1.0  0.1141
  H  H77  1  0.358800  0.548100  0.594400  1.0  0.1376
  H  H78  1  0.019600  0.739400  0.496900  1.0  0.104
  H  H79  1  0.206000  0.976600  0.398900  1.0  0.0446
  H  H80  1  0.089800  0.810500  0.266300  1.0  0.0907
  H  H81  1  0.842000  0.624000  0.355400  1.0  0.0453
  H  H82  1  0.000100  0.508800  0.134200  1.0  0.1001
  H  H83  1  0.689400  0.509000  0.132800  1.0  0.0528
  H  H84  1  0.600000  0.338300  0.987500  1.0  0.104
  H  H85  1  0.891200  0.288900  0.004600  1.0  0.0362
  H  H86  1  0.472000  0.207700  0.772200  1.0  0.09
  H  H87  1  0.556700  0.946600  0.773700  1.0  0.0482
  H  H88  1  0.324700  0.823800  0.643500  1.0  0.1062
  H  H89  1  0.306300  0.117700  0.630300  1.0  0.0623
  H  H90  1  0.488900  0.743300  0.705100  1.0  0.112
  H  H91  1  0.659300  0.070600  0.480900  1.0  0.3561
  H  H92  1  0.711400  0.131300  0.460500  1.0  0.3216
  H  H93  1  0.079100  0.504900  0.739100  1.0  0.354
  H  H94  1  0.019400  0.452900  0.760200  1.0  0.3389
  H  H95  1  0.132900  0.275200  0.823500  1.0  0.3658
  H  H96  1  0.060000  0.283500  0.825600  1.0  0.3299
  H  H97  1  0.234600  0.757100  0.150900  1.0  0.3381
  H  H98  1  0.304700  0.742300  0.150600  1.0  0.3363
  H  H99  1  0.387300  0.918400  0.074700  1.0  0.3468
  H  H100  1  0.414400  0.857600  0.081000  1.0  0.3333
  H  H101  1  0.914200  0.063900  0.402800  1.0  0.3587
  H  H102  1  0.899000  0.132300  0.400200  1.0  0.3311
  H  H103  1  0.454900  0.554500  0.199900  1.0  0.1234
  H  H104  1  0.427900  0.467500  0.249500  1.0  0.1248
  H  H105  1  0.297300  0.554300  0.308500  1.0  0.1322
  H  H106  1  0.327500  0.642200  0.259400  1.0  0.1234
  H  H107  1  0.453000  0.337800  0.294000  1.0  0.1288
  H  H108  1  0.373300  0.141600  0.370900  1.0  0.1094
  H  H109  1  0.314700  0.223000  0.372300  1.0  0.1307
  H  H110  1  0.158200  0.252200  0.369400  1.0  0.118
  H  H111  1  0.044800  0.228200  0.392500  1.0  0.1085
  H  H112  1  0.067700  0.433700  0.390900  1.0  0.1269
  H  H113  1  0.178500  0.457700  0.366700  1.0  0.1125
  H  H114  1  0.937200  0.909500  0.708000  1.0  0.1321
  H  H115  1  0.889500  0.806000  0.740700  1.0  0.1147
  H  H116  1  0.727700  0.864800  0.773200  1.0  0.1183
  H  H117  1  0.774700  0.968600  0.741300  1.0  0.1239
  H  H118  1  0.873200  0.634500  0.753900  1.0  0.1071
  H  H119  1  0.908300  0.537200  0.744200  1.0  0.1301
  H  H120  1  0.801900  0.458900  0.849900  1.0  0.1168
  H  H121  1  0.757200  0.552000  0.855300  1.0  0.1273
  H  H122  1  0.629700  0.602200  0.877900  1.0  0.1228
  H  H123  1  0.525500  0.584200  0.909200  1.0  0.1255
  H  H124  1  0.498800  0.748900  0.851800  1.0  0.1218
  H  H125  1  0.606400  0.771100  0.823000  1.0  0.1236
  H  H126  1  0.621500  0.724000  0.038400  1.0  0.1177
  H  H127  1  0.709500  0.751100  0.989900  1.0  0.1202
  H  H128  1  0.658600  0.916100  0.955800  1.0  0.127
  H  H129  1  0.570900  0.889600  0.003500  1.0  0.1192
  H  H130  1  0.841300  0.722400  0.948400  1.0  0.1309
  H  H131  1  0.913400  0.656400  0.941800  1.0  0.1201
  H  H132  1  0.027200  0.789800  0.858800  1.0  0.1402
  H  H133  1  0.956500  0.857600  0.867300  1.0  0.1014
  H  H134  1  0.940900  0.019700  0.876800  1.0  0.1321
  H  H135  1  0.969300  0.130800  0.851600  1.0  0.1165
  H  H136  1  0.758900  0.112000  0.842000  1.0  0.1189
  H  H137  1  0.733100  0.005600  0.872000  1.0  0.104
  H  H138  1  0.272400  0.253900  0.541000  1.0  0.1143
  H  H139  1  0.374500  0.298300  0.504900  1.0  0.1314
  H  H140  1  0.304300  0.454900  0.469400  1.0  0.123
  H  H141  1  0.204700  0.408000  0.507000  1.0  0.1242
  H  H142  1  0.570700  0.558400  0.366600  1.0  0.1287
  H  H143  1  0.591000  0.662100  0.334800  1.0  0.1273
  H  H144  1  0.437800  0.700600  0.397900  1.0  0.1363
  H  H145  1  0.413800  0.591200  0.428900  1.0  0.1194
  H  H146  1  0.523200  0.292500  0.470200  1.0  0.1221
  H  H147  1  0.611900  0.245600  0.471900  1.0  0.11
  H  H148  1  0.728500  0.397900  0.407100  1.0  0.1129
  H  H149  1  0.641200  0.451900  0.405600  1.0  0.1375
  H  H150  1  0.980400  0.260600  0.503100  1.0  0.1034
  H  H151  1  0.794000  0.023400  0.601100  1.0  0.0439
  H  H152  1  0.910200  0.189500  0.733700  1.0  0.0906
  H  H153  1  0.158000  0.376000  0.644600  1.0  0.0437
  H  H154  1  0.999900  0.491200  0.865800  1.0  0.0996
  H  H155  1  0.310600  0.491000  0.867200  1.0  0.0532
  H  H156  1  0.400000  0.661700  0.012500  1.0  0.1043
  H  H157  1  0.108800  0.711100  0.995400  1.0  0.0365
  H  H158  1  0.528000  0.792300  0.227800  1.0  0.0908
  H  H159  1  0.443300  0.053400  0.226300  1.0  0.0471
  H  H160  1  0.675300  0.176200  0.356500  1.0  0.1061
  H  H161  1  0.693700  0.882300  0.369700  1.0  0.0645
  H  H162  1  0.511100  0.256700  0.294900  1.0  0.1119
  C  C163  1  0.599400  0.342800  0.812500  1.0  0.7036
  C  C164  1  0.609000  0.395600  0.776800  1.0  -0.1167
  C  C165  1  0.577900  0.446200  0.778500  1.0  0.0182
  C  C166  1  0.594000  0.497800  0.749200  1.0  -0.0316
  C  C167  1  0.642600  0.499700  0.717500  1.0  -0.1017
  C  C168  1  0.671300  0.446500  0.713900  1.0  -0.1217
  C  C169  1  0.653600  0.394800  0.743400  1.0  -0.0213
  C  C170  1  0.667600  0.560300  0.691400  1.0  0.4103
  C  C171  1  0.660900  0.661600  0.669600  1.0  0.4067
  C  C172  1  0.751600  0.627200  0.652800  1.0  0.419
  C  C173  1  0.622900  0.712800  0.667700  1.0  -0.0712
  C  C174  1  0.563900  0.702500  0.690200  1.0  -0.1123
  C  C175  1  0.552100  0.809000  0.667600  1.0  -0.114
  C  C176  1  0.610200  0.818000  0.644900  1.0  -0.0481
  C  C177  1  0.645700  0.770000  0.644300  1.0  -0.0977
  C  C178  1  0.516600  0.862500  0.668800  1.0  0.6629
  C  C179  1  0.820300  0.641900  0.635200  1.0  -0.1033
  C  C180  1  0.860200  0.710600  0.626700  1.0  -0.0975
  C  C181  1  0.927700  0.724400  0.612400  1.0  -0.0299
  C  C182  1  0.955100  0.672100  0.605400  1.0  -0.0762
  C  C183  1  0.914300  0.603800  0.613600  1.0  -0.0962
  C  C184  1  0.848400  0.589600  0.628100  1.0  -0.0392
  C  C185  1  0.027100  0.688000  0.588800  1.0  0.7184
  C  C186  1  0.113700  0.984500  0.300900  1.0  0.7068
  C  C187  1  0.140500  0.051100  0.278800  1.0  -0.1255
  C  C188  1  0.105600  0.099400  0.278600  1.0  -0.0829
  C  C189  1  0.133600  0.160300  0.258800  1.0  -0.0032
  C  C190  1  0.194100  0.173300  0.238400  1.0  -0.1065
  C  C191  1  0.228900  0.125700  0.239600  1.0  -0.0516
  C  C192  1  0.201600  0.064600  0.259000  1.0  -0.0685
  C  C193  1  0.223900  0.238100  0.215700  1.0  0.3951
  C  C194  1  0.220000  0.342300  0.195800  1.0  0.3949
  C  C195  1  0.305900  0.300600  0.174500  1.0  0.3717
  C  C196  1  0.190600  0.397900  0.196300  1.0  -0.0537
  C  C197  1  0.143800  0.402700  0.227600  1.0  -0.0208
  C  C198  1  0.121500  0.459500  0.232700  1.0  -0.0803
  C  C199  1  0.142300  0.511500  0.204400  1.0  -0.1337
  C  C200  1  0.185700  0.506200  0.170800  1.0  -0.0312
  C  C201  1  0.211600  0.450300  0.167000  1.0  -0.0854
  C  C202  1  0.118000  0.576400  0.212200  1.0  0.6559
  C  C203  1  0.371500  0.311600  0.152900  1.0  -0.1279
  C  C204  1  0.396700  0.367300  0.127200  1.0  0.0092
  C  C205  1  0.458700  0.378600  0.109400  1.0  -0.0685
  C  C206  1  0.499200  0.336000  0.118200  1.0  -0.1285
  C  C207  1  0.474300  0.281000  0.142800  1.0  -0.0494
  C  C208  1  0.410600  0.268000  0.160100  1.0  -0.0646
  C  C209  1  0.571800  0.352600  0.101900  1.0  0.6592
  C  C210  1  0.469300  0.210600  0.942700  1.0  0.7023
  C  C211  1  0.412700  0.195800  0.973500  1.0  -0.123
  C  C212  1  0.371300  0.236300  0.978300  1.0  -0.0687
  C  C213  1  0.318700  0.220000  0.007200  1.0  -0.0488
  C  C214  1  0.306900  0.163100  0.031700  1.0  -0.1124
  C  C215  1  0.348400  0.123300  0.027300  1.0  -0.0581
  C  C216  1  0.400700  0.139200  0.998800  1.0  -0.0679
  C  C217  1  0.246900  0.141000  0.059400  1.0  0.3844
  C  C218  1  0.151800  0.157600  0.085800  1.0  0.3643
  C  C219  1  0.180900  0.065000  0.102400  1.0  0.3743
  C  C220  1  0.107000  0.201000  0.090400  1.0  -0.1128
  C  C221  1  0.120300  0.263200  0.069200  1.0  -0.0491
  C  C222  1  0.078300  0.302800  0.073800  1.0  -0.0334
  C  C223  1  0.024000  0.285100  0.100800  1.0  -0.1107
  C  C224  1  0.010400  0.223600  0.122900  1.0  -0.0896
  C  C225  1  0.052200  0.183600  0.117400  1.0  -0.0118
  C  C226  1  0.976500  0.328000  0.103800  1.0  0.6544
  C  C227  1  0.166000  0.997600  0.122400  1.0  -0.0874
  C  C228  1  0.096100  0.960800  0.129000  1.0  -0.0933
  C  C229  1  0.079600  0.894800  0.144300  1.0  -0.0616
  C  C230  1  0.131200  0.866100  0.153600  1.0  -0.0792
  C  C231  1  0.202800  0.905200  0.149300  1.0  -0.1037
  C  C232  1  0.218200  0.969200  0.132600  1.0  -0.0219
  C  C233  1  0.110400  0.793500  0.168500  1.0  0.6793
  C  C234  1  0.838600  0.706700  0.452900  1.0  0.6734
  C  C235  1  0.771100  0.674400  0.474900  1.0  -0.0969
  C  C236  1  0.720900  0.705200  0.474300  1.0  -0.0498
  C  C237  1  0.659800  0.678800  0.495300  1.0  -0.1259
  C  C238  1  0.650600  0.618200  0.516500  1.0  -0.099
  C  C239  1  0.701500  0.586500  0.516000  1.0  -0.0441
  C  C240  1  0.761300  0.614900  0.494200  1.0  -0.053
  C  C241  1  0.586200  0.587600  0.539400  1.0  0.3985
  C  C242  1  0.482000  0.589100  0.560300  1.0  0.3608
  C  C243  1  0.520400  0.501700  0.577800  1.0  0.3893
  C  C244  1  0.508900  0.434500  0.598800  1.0  -0.0744
  C  C245  1  0.456900  0.413100  0.626900  1.0  -0.0678
  C  C246  1  0.444600  0.351700  0.645300  1.0  -0.0567
  C  C247  1  0.482800  0.309400  0.635700  1.0  -0.0639
  C  C248  1  0.535300  0.328800  0.608500  1.0  -0.093
  C  C249  1  0.549200  0.393700  0.589800  1.0  0.0038
  C  C250  1  0.425200  0.621700  0.560200  1.0  -0.0414
  C  C251  1  0.433800  0.684000  0.541900  1.0  -0.1471
  C  C252  1  0.381300  0.711500  0.541100  1.0  -0.0587
  C  C253  1  0.319800  0.680800  0.557800  1.0  -0.1466
  C  C254  1  0.313000  0.622200  0.578700  1.0  -0.0567
  C  C255  1  0.364900  0.590000  0.580200  1.0  -0.1079
  C  C256  1  0.258200  0.711100  0.557500  1.0  0.5926
  C  C257  1  0.056800  0.776100  0.486500  1.0  0.2799
  C  C258  1  0.162000  0.850700  0.482600  1.0  -0.0534
  C  C259  1  0.106700  0.856800  0.446900  1.0  0.3822
  C  C260  1  0.193900  0.943200  0.420700  1.0  0.381
  C  C261  1  0.236600  0.897200  0.485000  1.0  0.5249
  C  C262  1  0.052600  0.773200  0.276400  1.0  0.2437
  C  C263  1  0.970200  0.722600  0.313000  1.0  0.3865
  C  C264  1  0.979600  0.669900  0.282200  1.0  -0.0853
  C  C265  1  0.936600  0.595600  0.281200  1.0  0.4863
  C  C266  1  0.879900  0.636900  0.337200  1.0  0.3712
  C  C267  1  0.957200  0.519100  0.135400  1.0  0.2744
  C  C268  1  0.843800  0.503100  0.130900  1.0  0.3557
  C  C269  1  0.889100  0.576400  0.147400  1.0  -0.0325
  C  C270  1  0.854000  0.625000  0.156700  1.0  0.4922
  C  C271  1  0.741900  0.526600  0.135900  1.0  0.356
  C  C272  1  0.642000  0.328200  0.983000  1.0  0.2782
  C  C273  1  0.715900  0.295800  0.947500  1.0  -0.0252
  C  C274  1  0.746700  0.317600  0.999500  1.0  0.3915
  C  C275  1  0.845600  0.292500  0.989900  1.0  0.3644
  C  C276  1  0.757600  0.274600  0.916800  1.0  0.5902
  C  C277  1  0.488900  0.170900  0.779900  1.0  0.2568
  C  C278  1  0.511300  0.077500  0.771000  1.0  0.4442
  C  C279  1  0.534400  0.109800  0.821400  1.0  -0.02
  C  C280  1  0.567800  0.077100  0.855100  1.0  0.5136
  C  C281  1  0.550600  0.989900  0.786000  1.0  0.3376
  C  C282  1  0.310700  0.863500  0.639800  1.0  0.241
  C  C283  1  0.320000  0.972800  0.640000  1.0  0.3766
  C  C284  1  0.290500  0.067100  0.630300  1.0  0.3416
  C  C285  1  0.191600  0.955800  0.613400  1.0  0.4576
  C  C286  1  0.245500  0.924300  0.623900  1.0  0.014
  C  C287  1  0.529600  0.751000  0.689600  1.0  -0.0522
  C  C288  1  0.469600  0.239000  0.653600  1.0  0.6941
  C  C289  1  0.400600  0.657200  0.187500  1.0  0.7048
  C  C290  1  0.391000  0.604400  0.223200  1.0  -0.1158
  C  C291  1  0.422100  0.553800  0.221500  1.0  0.0196
  C  C292  1  0.406000  0.502200  0.250800  1.0  -0.0325
  C  C293  1  0.357400  0.500300  0.282500  1.0  -0.1016
  C  C294  1  0.328700  0.553500  0.286100  1.0  -0.1223
  C  C295  1  0.346400  0.605200  0.256600  1.0  -0.022
  C  C296  1  0.332400  0.439700  0.308600  1.0  0.41
  C  C297  1  0.339100  0.338400  0.330400  1.0  0.4061
  C  C298  1  0.248400  0.372800  0.347200  1.0  0.4205
  C  C299  1  0.377100  0.287200  0.332300  1.0  -0.0706
  C  C300  1  0.436100  0.297500  0.309800  1.0  -0.1121
  C  C301  1  0.447900  0.191000  0.332400  1.0  -0.1121
  C  C302  1  0.389800  0.182000  0.355100  1.0  -0.0476
  C  C303  1  0.354300  0.230000  0.355700  1.0  -0.0969
  C  C304  1  0.483400  0.137500  0.331200  1.0  0.6651
  C  C305  1  0.179700  0.358100  0.364800  1.0  -0.102
  C  C306  1  0.139800  0.289400  0.373300  1.0  -0.098
  C  C307  1  0.072300  0.275600  0.387600  1.0  -0.0323
  C  C308  1  0.044900  0.327900  0.394600  1.0  -0.079
  C  C309  1  0.085700  0.396200  0.386400  1.0  -0.0956
  C  C310  1  0.151600  0.410400  0.371900  1.0  -0.0382
  C  C311  1  0.972900  0.312000  0.411200  1.0  0.7184
  C  C312  1  0.886300  0.015500  0.699100  1.0  0.7081
  C  C313  1  0.859500  0.948900  0.721200  1.0  -0.1237
  C  C314  1  0.894400  0.900600  0.721400  1.0  -0.0803
  C  C315  1  0.866400  0.839700  0.741200  1.0  -0.0017
  C  C316  1  0.805900  0.826700  0.761600  1.0  -0.1063
  C  C317  1  0.771100  0.874300  0.760400  1.0  -0.0517
  C  C318  1  0.798400  0.935400  0.741000  1.0  -0.0678
  C  C319  1  0.776100  0.761900  0.784300  1.0  0.3952
  C  C320  1  0.780000  0.657700  0.804200  1.0  0.3951
  C  C321  1  0.694100  0.699400  0.825500  1.0  0.3732
  C  C322  1  0.809400  0.602100  0.803700  1.0  -0.0525
  C  C323  1  0.856200  0.597300  0.772400  1.0  -0.022
  C  C324  1  0.878500  0.540500  0.767300  1.0  -0.0801
  C  C325  1  0.857700  0.488500  0.795600  1.0  -0.1344
  C  C326  1  0.814300  0.493800  0.829200  1.0  -0.0329
  C  C327  1  0.788400  0.549700  0.833000  1.0  -0.0861
  C  C328  1  0.882000  0.423600  0.787800  1.0  0.6553
  C  C329  1  0.628500  0.688400  0.847100  1.0  -0.1275
  C  C330  1  0.603300  0.632700  0.872800  1.0  0.011
  C  C331  1  0.541300  0.621400  0.890600  1.0  -0.0678
  C  C332  1  0.500800  0.664000  0.881800  1.0  -0.1291
  C  C333  1  0.525700  0.719000  0.857200  1.0  -0.0496
  C  C334  1  0.589400  0.732000  0.839900  1.0  -0.0639
  C  C335  1  0.428200  0.647400  0.898100  1.0  0.6578
  C  C336  1  0.530700  0.789400  0.057300  1.0  0.7013
  C  C337  1  0.587300  0.804200  0.026500  1.0  -0.1228
  C  C338  1  0.628700  0.763700  0.021700  1.0  -0.0686
  C  C339  1  0.681300  0.780000  0.992800  1.0  -0.049
  C  C340  1  0.693100  0.836900  0.968300  1.0  -0.1121
  C  C341  1  0.651600  0.876700  0.972700  1.0  -0.0593
  C  C342  1  0.599300  0.860800  0.001200  1.0  -0.0671
  C  C343  1  0.753100  0.859000  0.940600  1.0  0.3846
  C  C344  1  0.848200  0.842400  0.914200  1.0  0.3612
  C  C345  1  0.819100  0.935000  0.897600  1.0  0.3736
  C  C346  1  0.893000  0.799000  0.909600  1.0  -0.1131
  C  C347  1  0.879700  0.736800  0.930800  1.0  -0.0467
  C  C348  1  0.921700  0.697200  0.926200  1.0  -0.0352
  C  C349  1  0.976000  0.714900  0.899200  1.0  -0.1099
  C  C350  1  0.989600  0.776400  0.877100  1.0  -0.0887
  C  C351  1  0.947800  0.816400  0.882600  1.0  -0.0123
  C  C352  1  0.023500  0.672000  0.896200  1.0  0.6538
  C  C353  1  0.834000  0.002400  0.877600  1.0  -0.085
  C  C354  1  0.903900  0.039200  0.871000  1.0  -0.09
  C  C355  1  0.920400  0.105200  0.855700  1.0  -0.0603
  C  C356  1  0.868800  0.133900  0.846400  1.0  -0.0791
  C  C357  1  0.797200  0.094800  0.850700  1.0  -0.1042
  C  C358  1  0.781800  0.030800  0.867400  1.0  -0.0227
  C  C359  1  0.889600  0.206500  0.831500  1.0  0.6784
  C  C360  1  0.161400  0.293300  0.547100  1.0  0.6716
  C  C361  1  0.228900  0.325600  0.525100  1.0  -0.0978
  C  C362  1  0.279100  0.294800  0.525700  1.0  -0.0496
  C  C363  1  0.340200  0.321200  0.504700  1.0  -0.1269
  C  C364  1  0.349400  0.381800  0.483500  1.0  -0.0995
  C  C365  1  0.298500  0.413500  0.484000  1.0  -0.0437
  C  C366  1  0.238700  0.385100  0.505800  1.0  -0.0533
  C  C367  1  0.413800  0.412400  0.460600  1.0  0.3981
  C  C368  1  0.518000  0.410900  0.439700  1.0  0.3595
  C  C369  1  0.479600  0.498300  0.422200  1.0  0.3887
  C  C370  1  0.491100  0.565500  0.401200  1.0  -0.075
  C  C371  1  0.543100  0.586900  0.373100  1.0  -0.0681
  C  C372  1  0.555400  0.648300  0.354700  1.0  -0.0579
  C  C373  1  0.517200  0.690600  0.364300  1.0  -0.0636
  C  C374  1  0.464700  0.671200  0.391500  1.0  -0.0952
  C  C375  1  0.450800  0.606300  0.410200  1.0  0.0036
  C  C376  1  0.574800  0.378300  0.439800  1.0  -0.0425
  C  C377  1  0.566200  0.316000  0.458100  1.0  -0.1461
  C  C378  1  0.618700  0.288500  0.458900  1.0  -0.057
  C  C379  1  0.680200  0.319200  0.442200  1.0  -0.1447
  C  C380  1  0.687000  0.377800  0.421300  1.0  -0.0563
  C  C381  1  0.635100  0.410000  0.419800  1.0  -0.1081
  C  C382  1  0.741800  0.288900  0.442500  1.0  0.592
  C  C383  1  0.943200  0.223900  0.513500  1.0  0.2771
  C  C384  1  0.838000  0.149300  0.517400  1.0  -0.0543
  C  C385  1  0.893300  0.143200  0.553100  1.0  0.3842
  C  C386  1  0.806100  0.056800  0.579300  1.0  0.3801
  C  C387  1  0.763400  0.102800  0.515000  1.0  0.5286
  C  C388  1  0.947400  0.226800  0.723600  1.0  0.2437
  C  C389  1  0.029800  0.277400  0.687000  1.0  0.3889
  C  C390  1  0.020400  0.330100  0.717800  1.0  -0.0869
  C  C391  1  0.063400  0.404400  0.718800  1.0  0.4844
  C  C392  1  0.120100  0.363100  0.662800  1.0  0.372
  C  C393  1  0.042800  0.480900  0.864600  1.0  0.2731
  C  C394  1  0.156200  0.496900  0.869100  1.0  0.3544
  C  C395  1  0.110900  0.423600  0.852600  1.0  -0.0332
  C  C396  1  0.146000  0.375000  0.843300  1.0  0.4932
  C  C397  1  0.258100  0.473400  0.864100  1.0  0.3562
  C  C398  1  0.358000  0.671800  0.017000  1.0  0.2784
  C  C399  1  0.284100  0.704200  0.052500  1.0  -0.0262
  C  C400  1  0.253300  0.682400  0.000500  1.0  0.3908
  C  C401  1  0.154400  0.707500  0.010100  1.0  0.364
  C  C402  1  0.242400  0.725400  0.083200  1.0  0.5908
  C  C403  1  0.511100  0.829100  0.220100  1.0  0.2542
  C  C404  1  0.488700  0.922500  0.229000  1.0  0.4447
  C  C405  1  0.465600  0.890200  0.178600  1.0  -0.0189
  C  C406  1  0.432200  0.922900  0.144900  1.0  0.5145
  C  C407  1  0.449400  0.010100  0.214000  1.0  0.3374
  C  C408  1  0.689300  0.136500  0.360200  1.0  0.2404
  C  C409  1  0.680000  0.027200  0.360000  1.0  0.375
  C  C410  1  0.709500  0.932900  0.369700  1.0  0.3426
  C  C411  1  0.808400  0.044200  0.386600  1.0  0.4565
  C  C412  1  0.754500  0.075700  0.376100  1.0  0.0108
  C  C413  1  0.470400  0.249000  0.310400  1.0  -0.0508
  C  C414  1  0.530400  0.761000  0.346400  1.0  0.6943
  N  N415  1  0.239200  0.853700  0.622900  1.0  -0.3588
  N  N416  1  0.724900  0.566800  0.670730  1.0  -0.5266
  N  N417  1  0.632300  0.604400  0.690620  1.0  -0.5069
  N  N418  1  0.720400  0.675500  0.650080  1.0  -0.537
  N  N419  1  0.192800  0.287300  0.218630  1.0  -0.538
  N  N420  1  0.280500  0.242300  0.194660  1.0  -0.4626
  N  N421  1  0.275100  0.349900  0.171640  1.0  -0.5003
  N  N422  1  0.205900  0.181500  0.060960  1.0  -0.4873
  N  N423  1  0.135500  0.098900  0.105260  1.0  -0.4647
  N  N424  1  0.238800  0.084300  0.080740  1.0  -0.455
  N  N425  1  0.539700  0.620700  0.539610  1.0  -0.5231
  N  N426  1  0.471600  0.530600  0.581060  1.0  -0.4502
  N  N427  1  0.580200  0.527200  0.557280  1.0  -0.5103
  N  N428  1  0.128800  0.798200  0.508800  1.0  -0.4335
  N  N429  1  0.037800  0.807300  0.448550  1.0  -0.4205
  N  N430  1  0.120400  0.901900  0.412700  1.0  -0.3726
  N  N431  1  0.250900  0.944400  0.453700  1.0  -0.4216
  N  N432  1  0.295100  0.898600  0.518200  1.0  -0.651
  N  N433  1  0.017900  0.789600  0.309980  1.0  -0.4124
  N  N434  1  0.034000  0.703500  0.257360  1.0  -0.4262
  N  N435  1  0.920800  0.708600  0.344010  1.0  -0.3667
  N  N436  1  0.885000  0.582400  0.309000  1.0  -0.4478
  N  N437  1  0.947200  0.539700  0.258100  1.0  -0.6749
  N  N438  1  0.963200  0.586200  0.150520  1.0  -0.4325
  N  N439  1  0.887900  0.465900  0.121780  1.0  -0.4523
  N  N440  1  0.768000  0.475000  0.123500  1.0  -0.3337
  N  N441  1  0.779200  0.597400  0.151700  1.0  -0.4614
  N  N442  1  0.891200  0.696800  0.170800  1.0  -0.6633
  N  N443  1  0.699400  0.338400  0.022350  1.0  -0.4348
  N  N444  1  0.648300  0.303000  0.937140  1.0  -0.4282
  N  N445  1  0.813900  0.318500  0.023310  1.0  -0.3617
  N  N446  1  0.821900  0.271500  0.940200  1.0  -0.4543
  N  N447  1  0.737100  0.256400  0.866100  1.0  -0.6622
  N  N448  1  0.520300  0.171800  0.827390  1.0  -0.4173
  N  N449  1  0.481800  0.116400  0.743530  1.0  -0.4122
  N  N450  1  0.516100  0.014300  0.750610  1.0  -0.3082
  N  N451  1  0.577800  0.017300  0.836200  1.0  -0.4906
  N  N452  1  0.591400  0.103300  0.905500  1.0  -0.6696
  N  N453  1  0.117700  0.915300  0.602200  1.0  -0.66
  N  N454  1  0.218000  0.029000  0.617200  1.0  -0.4595
  N  N455  1  0.344700  0.045000  0.643520  1.0  -0.3245
  N  N456  1  0.361400  0.932900  0.651360  1.0  -0.4533
  N  N457  1  0.760800  0.146300  0.377100  1.0  -0.3623
  N  N458  1  0.275100  0.433200  0.329270  1.0  -0.5288
  N  N459  1  0.367700  0.395600  0.309380  1.0  -0.5047
  N  N460  1  0.279600  0.324500  0.349920  1.0  -0.5386
  N  N461  1  0.807200  0.712700  0.781370  1.0  -0.5333
  N  N462  1  0.719500  0.757700  0.805340  1.0  -0.4643
  N  N463  1  0.724900  0.650100  0.828360  1.0  -0.4989
  N  N464  1  0.794100  0.818500  0.939040  1.0  -0.4878
  N  N465  1  0.864500  0.901100  0.894740  1.0  -0.4638
  N  N466  1  0.761200  0.915700  0.919260  1.0  -0.4562
  N  N467  1  0.460300  0.379300  0.460390  1.0  -0.5204
  N  N468  1  0.528400  0.469400  0.418940  1.0  -0.4474
  N  N469  1  0.419800  0.472800  0.442720  1.0  -0.5118
  N  N470  1  0.871200  0.201800  0.491200  1.0  -0.4367
  N  N471  1  0.962200  0.192700  0.551450  1.0  -0.4207
  N  N472  1  0.879600  0.098100  0.587300  1.0  -0.3734
  N  N473  1  0.749100  0.055600  0.546300  1.0  -0.4183
  N  N474  1  0.704900  0.101400  0.481800  1.0  -0.6481
  N  N475  1  0.982100  0.210400  0.690020  1.0  -0.4118
  N  N476  1  0.966000  0.296500  0.742640  1.0  -0.426
  N  N477  1  0.079200  0.291400  0.655990  1.0  -0.3681
  N  N478  1  0.115000  0.417600  0.691000  1.0  -0.4494
  N  N479  1  0.052800  0.460300  0.741900  1.0  -0.677
  N  N480  1  0.036800  0.413800  0.849480  1.0  -0.4347
  N  N481  1  0.112100  0.534100  0.878220  1.0  -0.4505
  N  N482  1  0.232000  0.525000  0.876500  1.0  -0.3344
  N  N483  1  0.220800  0.402600  0.848300  1.0  -0.4656
  N  N484  1  0.108800  0.303200  0.829200  1.0  -0.6647
  N  N485  1  0.300600  0.661600  0.977650  1.0  -0.4361
  N  N486  1  0.351700  0.697000  0.062860  1.0  -0.4283
  N  N487  1  0.186100  0.681500  0.976690  1.0  -0.36
  N  N488  1  0.178100  0.728500  0.059800  1.0  -0.4521
  N  N489  1  0.262900  0.743600  0.133900  1.0  -0.6608
  N  N490  1  0.479700  0.828200  0.172610  1.0  -0.4184
  N  N491  1  0.518200  0.883600  0.256470  1.0  -0.4117
  N  N492  1  0.483900  0.985700  0.249390  1.0  -0.307
  N  N493  1  0.422200  0.982700  0.163800  1.0  -0.4906
  N  N494  1  0.408600  0.896700  0.094500  1.0  -0.6694
  N  N495  1  0.882300  0.084700  0.397800  1.0  -0.6601
  N  N496  1  0.782000  0.971000  0.382800  1.0  -0.461
  N  N497  1  0.655300  0.955000  0.356480  1.0  -0.3265
  N  N498  1  0.638600  0.067100  0.348640  1.0  -0.4536
  O  O499  1  0.551300  0.338200  0.838620  1.0  -0.584
  O  O500  1  0.638800  0.307900  0.814660  1.0  -0.6246
  O  O501  1  0.461000  0.849900  0.686500  1.0  -0.5698
  O  O502  1  0.543600  0.919200  0.653200  1.0  -0.5524
  O  O503  1  0.072700  0.750200  0.597600  1.0  -0.5753
  O  O504  1  0.035200  0.635900  0.563500  1.0  -0.4418
  O  O505  1  0.145500  0.942900  0.301740  1.0  -0.5541
  O  O506  1  0.057800  0.975000  0.320140  1.0  -0.5785
  O  O507  1  0.088300  0.582300  0.246800  1.0  -0.5722
  O  O508  1  0.126800  0.614800  0.178800  1.0  -0.5797
  O  O509  1  0.587200  0.396100  0.072300  1.0  -0.57
  O  O510  1  0.613800  0.324000  0.120130  1.0  -0.5658
  O  O511  1  0.475900  0.260500  0.917450  1.0  -0.5928
  O  O512  1  0.507600  0.174100  0.942890  1.0  -0.6391
  O  O513  1  0.990200  0.384000  0.085190  1.0  -0.628
  O  O514  1  0.920900  0.304600  0.122920  1.0  -0.5993
  O  O515  1  0.843900  0.761400  0.432700  1.0  -0.5883
  O  O516  1  0.884900  0.678700  0.454500  1.0  -0.5578
  O  O517  1  0.266400  0.758600  0.528600  1.0  -0.5802
  O  O518  1  0.212100  0.693800  0.577600  1.0  -0.539
  O  O519  1  0.948900  0.871500  0.377460  1.0  -0.6921
  O  O520  1  0.159400  0.776500  0.192880  1.0  -0.6002
  O  O521  1  0.042400  0.750000  0.155800  1.0  -0.6256
  O  O522  1  0.771100  0.323400  0.128210  1.0  -0.5907
  O  O523  1  0.506200  0.052050  0.644760  1.0  -0.6624
  O  O524  1  0.499500  0.199900  0.641500  1.0  -0.5416
  O  O525  1  0.424200  0.224400  0.682200  1.0  -0.6009
  O  O526  1  0.448700  0.661800  0.161380  1.0  -0.5854
  O  O527  1  0.361200  0.692100  0.185340  1.0  -0.6239
  O  O528  1  0.539000  0.150100  0.313500  1.0  -0.5713
  O  O529  1  0.456400  0.080800  0.346800  1.0  -0.554
  O  O530  1  0.927300  0.249800  0.402400  1.0  -0.5754
  O  O531  1  0.964800  0.364100  0.436500  1.0  -0.4412
  O  O532  1  0.854500  0.057100  0.698260  1.0  -0.5532
  O  O533  1  0.942200  0.025000  0.679860  1.0  -0.5785
  O  O534  1  0.911700  0.417700  0.753200  1.0  -0.5764
  O  O535  1  0.873200  0.385200  0.821200  1.0  -0.5783
  O  O536  1  0.412800  0.603900  0.927700  1.0  -0.5707
  O  O537  1  0.386200  0.676000  0.879870  1.0  -0.565
  O  O538  1  0.524100  0.739500  0.082550  1.0  -0.591
  O  O539  1  0.492400  0.825900  0.057110  1.0  -0.6341
  O  O540  1  0.009800  0.616000  0.914810  1.0  -0.6274
  O  O541  1  0.079100  0.695400  0.877080  1.0  -0.5984
  O  O542  1  0.156100  0.238600  0.567300  1.0  -0.5889
  O  O543  1  0.115100  0.321300  0.545500  1.0  -0.557
  O  O544  1  0.733600  0.241400  0.471400  1.0  -0.5812
  O  O545  1  0.787900  0.306200  0.422400  1.0  -0.5384
  O  O546  1  0.051100  0.128500  0.622540  1.0  -0.6941
  O  O547  1  0.840600  0.223500  0.807120  1.0  -0.6008
  O  O548  1  0.957600  0.250000  0.844200  1.0  -0.6254
  O  O549  1  0.228900  0.676600  0.871790  1.0  -0.5889
  O  O550  1  0.493800  0.947950  0.355240  1.0  -0.6634
  O  O551  1  0.500500  0.800100  0.358500  1.0  -0.5402
  O  O552  1  0.575800  0.775600  0.317800  1.0  -0.6016
