# generated using pymatgen
data_AgH6C8N3
_symmetry_space_group_name_H-M   'P 1'
_cell_length_a   5.77820000
_cell_length_b   20.40810000
_cell_length_c   16.10090000
_cell_angle_alpha   90.00000000
_cell_angle_beta   94.67400000
_cell_angle_gamma   90.00000000
_symmetry_Int_Tables_number   1
_chemical_formula_structural   AgH6C8N3
_chemical_formula_sum   'Ag8 H48 C64 N24'
_cell_volume   1892.33764361
_cell_formula_units_Z   8
loop_
 _symmetry_equiv_pos_site_id
 _symmetry_equiv_pos_as_xyz
  1  'x, y, z'
loop_
 _atom_site_type_symbol
 _atom_site_label
 _atom_site_symmetry_multiplicity
 _atom_site_fract_x
 _atom_site_fract_y
 _atom_site_fract_z
 _atom_site_occupancy
 _atom_site_charge
  Ag  Ag1  1  0.288210  0.530800  0.540900  1.0  0.3494
  Ag  Ag2  1  0.808570  0.573000  0.602840  1.0  0.4132
  Ag  Ag3  1  0.711790  0.030800  0.959100  1.0  0.35
  Ag  Ag4  1  0.191430  0.073000  0.897160  1.0  0.413
  Ag  Ag5  1  0.711790  0.469200  0.459100  1.0  0.3501
  Ag  Ag6  1  0.191430  0.427000  0.397160  1.0  0.4128
  Ag  Ag7  1  0.288210  0.969200  0.040900  1.0  0.3495
  Ag  Ag8  1  0.808570  0.927000  0.102840  1.0  0.413
  H  H9  1  0.853200  0.470500  0.778600  1.0  0.0963
  H  H10  1  0.220300  0.411000  0.687200  1.0  0.098
  H  H11  1  0.820700  0.320600  0.996100  1.0  0.0765
  H  H12  1  0.845800  0.393700  0.888100  1.0  0.1201
  H  H13  1  0.196400  0.341200  0.800400  1.0  0.1137
  H  H14  1  0.190900  0.269200  0.910500  1.0  0.0758
  H  H15  1  0.307000  0.645500  0.379300  1.0  0.1015
  H  H16  1  0.699200  0.700600  0.463200  1.0  0.1078
  H  H17  1  0.207500  0.810800  0.176500  1.0  0.0732
  H  H18  1  0.269000  0.730100  0.275400  1.0  0.1133
  H  H19  1  0.671900  0.786700  0.371100  1.0  0.1135
  H  H20  1  0.630700  0.865900  0.269700  1.0  0.0723
  H  H21  1  0.146800  0.970500  0.721400  1.0  0.0954
  H  H22  1  0.779700  0.911000  0.812800  1.0  0.0981
  H  H23  1  0.179300  0.820600  0.503900  1.0  0.0759
  H  H24  1  0.154200  0.893700  0.611900  1.0  0.1193
  H  H25  1  0.803600  0.841200  0.699600  1.0  0.1139
  H  H26  1  0.809100  0.769200  0.589500  1.0  0.0757
  H  H27  1  0.693000  0.145500  0.120700  1.0  0.1016
  H  H28  1  0.300800  0.200600  0.036800  1.0  0.1075
  H  H29  1  0.792500  0.310800  0.323500  1.0  0.073
  H  H30  1  0.731000  0.230100  0.224600  1.0  0.113
  H  H31  1  0.328100  0.286700  0.128900  1.0  0.1138
  H  H32  1  0.369300  0.365900  0.230300  1.0  0.0722
  H  H33  1  0.146800  0.529500  0.221400  1.0  0.095
  H  H34  1  0.779700  0.589000  0.312800  1.0  0.0983
  H  H35  1  0.179300  0.679400  0.003900  1.0  0.0758
  H  H36  1  0.154200  0.606300  0.111900  1.0  0.119
  H  H37  1  0.803600  0.658800  0.199600  1.0  0.1139
  H  H38  1  0.809100  0.730800  0.089500  1.0  0.0754
  H  H39  1  0.693000  0.354500  0.620700  1.0  0.1018
  H  H40  1  0.300800  0.299400  0.536800  1.0  0.1075
  H  H41  1  0.792500  0.189200  0.823500  1.0  0.0731
  H  H42  1  0.731000  0.269900  0.724600  1.0  0.1131
  H  H43  1  0.328100  0.213300  0.628900  1.0  0.1132
  H  H44  1  0.369300  0.134100  0.730300  1.0  0.072
  H  H45  1  0.853200  0.029500  0.278600  1.0  0.0962
  H  H46  1  0.220300  0.089000  0.187200  1.0  0.0983
  H  H47  1  0.820700  0.179400  0.496100  1.0  0.0761
  H  H48  1  0.845800  0.106300  0.388100  1.0  0.12
  H  H49  1  0.196400  0.158800  0.300400  1.0  0.1133
  H  H50  1  0.190900  0.230800  0.410500  1.0  0.0765
  H  H51  1  0.307000  0.854500  0.879300  1.0  0.1018
  H  H52  1  0.699200  0.799400  0.963200  1.0  0.108
  H  H53  1  0.207500  0.689200  0.676500  1.0  0.0731
  H  H54  1  0.269000  0.769900  0.775400  1.0  0.1133
  H  H55  1  0.671900  0.713300  0.871100  1.0  0.1127
  H  H56  1  0.630700  0.634100  0.769700  1.0  0.0721
  C  C57  1  0.711800  0.465730  0.744700  1.0  0.0296
  C  C58  1  0.533500  0.422200  0.760800  1.0  -0.1769
  C  C59  1  0.365600  0.432900  0.694500  1.0  0.0219
  C  C60  1  0.691400  0.324900  0.956100  1.0  0.1534
  C  C61  1  0.708200  0.368700  0.891200  1.0  -0.184
  C  C62  1  0.524000  0.376110  0.830400  1.0  0.0762
  C  C63  1  0.327900  0.337900  0.839700  1.0  -0.189
  C  C64  1  0.325800  0.295200  0.906300  1.0  0.1724
  C  C65  1  0.172400  0.647500  0.409400  1.0  0.0481
  C  C66  1  0.998600  0.694270  0.397000  1.0  -0.1477
  C  C67  1  0.839300  0.677860  0.455500  1.0  -0.0029
  C  C68  1  0.096600  0.805300  0.216400  1.0  0.1596
  C  C69  1  0.134700  0.757000  0.275300  1.0  -0.1822
  C  C70  1  0.974400  0.747250  0.335700  1.0  0.0304
  C  C71  1  0.784700  0.790200  0.331500  1.0  -0.1981
  C  C72  1  0.760800  0.837400  0.270500  1.0  0.1565
  C  C73  1  0.288200  0.965730  0.755300  1.0  0.0289
  C  C74  1  0.466500  0.922200  0.739200  1.0  -0.1764
  C  C75  1  0.634400  0.932900  0.805500  1.0  0.0232
  C  C76  1  0.308600  0.824900  0.543900  1.0  0.1527
  C  C77  1  0.291800  0.868700  0.608800  1.0  -0.1826
  C  C78  1  0.476000  0.876110  0.669600  1.0  0.0744
  C  C79  1  0.672100  0.837900  0.660300  1.0  -0.1876
  C  C80  1  0.674200  0.795200  0.593700  1.0  0.1728
  C  C81  1  0.827600  0.147500  0.090600  1.0  0.0469
  C  C82  1  0.001400  0.194270  0.103000  1.0  -0.1471
  C  C83  1  0.160700  0.177860  0.044500  1.0  -0.0028
  C  C84  1  0.903400  0.305300  0.283600  1.0  0.1594
  C  C85  1  0.865300  0.257000  0.224700  1.0  -0.1823
  C  C86  1  0.025600  0.247250  0.164300  1.0  0.0311
  C  C87  1  0.215300  0.290200  0.168500  1.0  -0.1971
  C  C88  1  0.239200  0.337400  0.229500  1.0  0.1561
  C  C89  1  0.288200  0.534270  0.255300  1.0  0.0307
  C  C90  1  0.466500  0.577800  0.239200  1.0  -0.177
  C  C91  1  0.634400  0.567100  0.305500  1.0  0.0221
  C  C92  1  0.308600  0.675100  0.043900  1.0  0.1534
  C  C93  1  0.291800  0.631300  0.108800  1.0  -0.1837
  C  C94  1  0.476000  0.623890  0.169600  1.0  0.074
  C  C95  1  0.672100  0.662100  0.160300  1.0  -0.1881
  C  C96  1  0.674200  0.704800  0.093700  1.0  0.1726
  C  C97  1  0.827600  0.352500  0.590600  1.0  0.0466
  C  C98  1  0.001400  0.305730  0.603000  1.0  -0.1476
  C  C99  1  0.160700  0.322140  0.544500  1.0  -0.0024
  C  C100  1  0.903400  0.194700  0.783600  1.0  0.1604
  C  C101  1  0.865300  0.243000  0.724700  1.0  -0.1819
  C  C102  1  0.025600  0.252750  0.664300  1.0  0.0309
  C  C103  1  0.215300  0.209800  0.668500  1.0  -0.1973
  C  C104  1  0.239200  0.162600  0.729500  1.0  0.1561
  C  C105  1  0.711800  0.034270  0.244700  1.0  0.0308
  C  C106  1  0.533500  0.077800  0.260800  1.0  -0.1788
  C  C107  1  0.365600  0.067100  0.194500  1.0  0.0223
  C  C108  1  0.691400  0.175100  0.456100  1.0  0.1535
  C  C109  1  0.708200  0.131300  0.391200  1.0  -0.1847
  C  C110  1  0.524000  0.123890  0.330400  1.0  0.0759
  C  C111  1  0.327900  0.162100  0.339700  1.0  -0.189
  C  C112  1  0.325800  0.204800  0.406300  1.0  0.1729
  C  C113  1  0.172400  0.852500  0.909400  1.0  0.0483
  C  C114  1  0.998600  0.805730  0.897000  1.0  -0.1478
  C  C115  1  0.839300  0.822140  0.955500  1.0  -0.0036
  C  C116  1  0.096600  0.694700  0.716400  1.0  0.1585
  C  C117  1  0.134700  0.743000  0.775300  1.0  -0.1824
  C  C118  1  0.974400  0.752750  0.835700  1.0  0.0306
  C  C119  1  0.784700  0.709800  0.831500  1.0  -0.1972
  C  C120  1  0.760800  0.662600  0.770500  1.0  0.158
  N  N121  1  0.438900  0.478510  0.642930  1.0  -0.2236
  N  N122  1  0.655200  0.499790  0.674740  1.0  -0.2445
  N  N123  1  0.502000  0.287980  0.965700  1.0  -0.3806
  N  N124  1  0.916800  0.625320  0.498280  1.0  -0.2336
  N  N125  1  0.124200  0.605770  0.469460  1.0  -0.2476
  N  N126  1  0.911000  0.845350  0.212020  1.0  -0.3589
  N  N127  1  0.561100  0.978510  0.857070  1.0  -0.2241
  N  N128  1  0.344800  0.999790  0.825260  1.0  -0.2454
  N  N129  1  0.498000  0.787980  0.534300  1.0  -0.3809
  N  N130  1  0.083200  0.125320  0.001720  1.0  -0.2346
  N  N131  1  0.875800  0.105770  0.030540  1.0  -0.2485
  N  N132  1  0.089000  0.345350  0.287980  1.0  -0.3592
  N  N133  1  0.561100  0.521490  0.357070  1.0  -0.2254
  N  N134  1  0.344800  0.500210  0.325260  1.0  -0.247
  N  N135  1  0.498000  0.712020  0.034300  1.0  -0.3787
  N  N136  1  0.083200  0.374680  0.501720  1.0  -0.2327
  N  N137  1  0.875800  0.394230  0.530540  1.0  -0.248
  N  N138  1  0.089000  0.154650  0.787980  1.0  -0.3599
  N  N139  1  0.438900  0.021490  0.142930  1.0  -0.2252
  N  N140  1  0.655200  0.000210  0.174740  1.0  -0.2458
  N  N141  1  0.502000  0.212020  0.465700  1.0  -0.38
  N  N142  1  0.916800  0.874680  0.998280  1.0  -0.232
  N  N143  1  0.124200  0.894230  0.969460  1.0  -0.2479
  N  N144  1  0.911000  0.654650  0.712020  1.0  -0.3609
