# generated using pymatgen
data_AgH12(C3N2)2
_symmetry_space_group_name_H-M   'P 1'
_cell_length_a   10.57800000
_cell_length_b   10.57800000
_cell_length_c   10.57800000
_cell_angle_alpha   90.00000000
_cell_angle_beta   90.00000000
_cell_angle_gamma   90.00000000
_symmetry_Int_Tables_number   1
_chemical_formula_structural   AgH12(C3N2)2
_chemical_formula_sum   'Ag4 H48 C24 N16'
_cell_volume   1183.61562055
_cell_formula_units_Z   4
loop_
 _symmetry_equiv_pos_site_id
 _symmetry_equiv_pos_as_xyz
  1  'x, y, z'
loop_
 _atom_site_type_symbol
 _atom_site_label
 _atom_site_symmetry_multiplicity
 _atom_site_fract_x
 _atom_site_fract_y
 _atom_site_fract_z
 _atom_site_occupancy
 _atom_site_charge
  Ag  Ag1  1  0.870080  0.129920  0.629920  1.0  0.0887
  Ag  Ag2  1  0.629920  0.870080  0.129920  1.0  0.0882
  Ag  Ag3  1  0.129920  0.629920  0.870080  1.0  0.0886
  Ag  Ag4  1  0.370080  0.370080  0.370080  1.0  0.0875
  H  H5  1  0.811000  0.846000  0.605000  1.0  0.059
  H  H6  1  0.690000  0.909000  0.675000  1.0  0.075
  H  H7  1  0.016000  0.877000  0.700000  1.0  0.0792
  H  H8  1  0.028000  0.940000  0.842000  1.0  0.0747
  H  H9  1  0.689000  0.154000  0.105000  1.0  0.0592
  H  H10  1  0.810000  0.091000  0.175000  1.0  0.0778
  H  H11  1  0.484000  0.123000  0.200000  1.0  0.0799
  H  H12  1  0.472000  0.060000  0.342000  1.0  0.0768
  H  H13  1  0.189000  0.346000  0.895000  1.0  0.0588
  H  H14  1  0.310000  0.409000  0.825000  1.0  0.0782
  H  H15  1  0.984000  0.377000  0.800000  1.0  0.0809
  H  H16  1  0.972000  0.440000  0.658000  1.0  0.0768
  H  H17  1  0.311000  0.654000  0.395000  1.0  0.0586
  H  H18  1  0.190000  0.591000  0.325000  1.0  0.076
  H  H19  1  0.516000  0.623000  0.300000  1.0  0.0794
  H  H20  1  0.528000  0.560000  0.158000  1.0  0.0748
  H  H21  1  0.605000  0.811000  0.846000  1.0  0.0582
  H  H22  1  0.675000  0.690000  0.909000  1.0  0.0762
  H  H23  1  0.700000  0.016000  0.877000  1.0  0.0812
  H  H24  1  0.842000  0.028000  0.940000  1.0  0.0739
  H  H25  1  0.105000  0.689000  0.154000  1.0  0.0577
  H  H26  1  0.175000  0.810000  0.091000  1.0  0.0757
  H  H27  1  0.200000  0.484000  0.123000  1.0  0.0807
  H  H28  1  0.342000  0.472000  0.060000  1.0  0.074
  H  H29  1  0.895000  0.189000  0.346000  1.0  0.058
  H  H30  1  0.825000  0.310000  0.409000  1.0  0.0763
  H  H31  1  0.800000  0.984000  0.377000  1.0  0.0805
  H  H32  1  0.658000  0.972000  0.440000  1.0  0.0757
  H  H33  1  0.395000  0.311000  0.654000  1.0  0.0584
  H  H34  1  0.325000  0.190000  0.591000  1.0  0.076
  H  H35  1  0.300000  0.516000  0.623000  1.0  0.0822
  H  H36  1  0.158000  0.528000  0.560000  1.0  0.0755
  H  H37  1  0.846000  0.605000  0.811000  1.0  0.0588
  H  H38  1  0.909000  0.675000  0.690000  1.0  0.0742
  H  H39  1  0.877000  0.700000  0.016000  1.0  0.0809
  H  H40  1  0.940000  0.842000  0.028000  1.0  0.0729
  H  H41  1  0.154000  0.105000  0.689000  1.0  0.0579
  H  H42  1  0.091000  0.175000  0.810000  1.0  0.0762
  H  H43  1  0.123000  0.200000  0.484000  1.0  0.0795
  H  H44  1  0.060000  0.342000  0.472000  1.0  0.0754
  H  H45  1  0.346000  0.895000  0.189000  1.0  0.0584
  H  H46  1  0.409000  0.825000  0.310000  1.0  0.0758
  H  H47  1  0.377000  0.800000  0.984000  1.0  0.0813
  H  H48  1  0.440000  0.658000  0.972000  1.0  0.0737
  H  H49  1  0.654000  0.395000  0.311000  1.0  0.0578
  H  H50  1  0.591000  0.325000  0.190000  1.0  0.0755
  H  H51  1  0.623000  0.300000  0.516000  1.0  0.0813
  H  H52  1  0.560000  0.158000  0.528000  1.0  0.0746
  C  C53  1  0.768600  0.866300  0.683500  1.0  0.0736
  C  C54  1  0.971400  0.884800  0.785900  1.0  -0.0339
  C  C55  1  0.731400  0.133700  0.183500  1.0  0.0743
  C  C56  1  0.528600  0.115200  0.285900  1.0  -0.0357
  C  C57  1  0.231400  0.366300  0.816500  1.0  0.0748
  C  C58  1  0.028600  0.384800  0.714100  1.0  -0.0354
  C  C59  1  0.268600  0.633700  0.316500  1.0  0.0756
  C  C60  1  0.471400  0.615200  0.214100  1.0  -0.0346
  C  C61  1  0.683500  0.768600  0.866300  1.0  0.0746
  C  C62  1  0.785900  0.971400  0.884800  1.0  -0.0359
  C  C63  1  0.183500  0.731400  0.133700  1.0  0.0753
  C  C64  1  0.285900  0.528600  0.115200  1.0  -0.034
  C  C65  1  0.816500  0.231400  0.366300  1.0  0.0735
  C  C66  1  0.714100  0.028600  0.384800  1.0  -0.0361
  C  C67  1  0.316500  0.268600  0.633700  1.0  0.0727
  C  C68  1  0.214100  0.471400  0.615200  1.0  -0.0352
  C  C69  1  0.866300  0.683500  0.768600  1.0  0.0732
  C  C70  1  0.884800  0.785900  0.971400  1.0  -0.0358
  C  C71  1  0.133700  0.183500  0.731400  1.0  0.0731
  C  C72  1  0.115200  0.285900  0.528600  1.0  -0.0362
  C  C73  1  0.366300  0.816500  0.231400  1.0  0.0741
  C  C74  1  0.384800  0.714100  0.028600  1.0  -0.0366
  C  C75  1  0.633700  0.316500  0.268600  1.0  0.0729
  C  C76  1  0.615200  0.214100  0.471400  1.0  -0.035
  N  N77  1  0.849900  0.950900  0.761800  1.0  -0.2372
  N  N78  1  0.650100  0.049100  0.261800  1.0  -0.2373
  N  N79  1  0.150100  0.450900  0.738200  1.0  -0.2359
  N  N80  1  0.349900  0.549100  0.238200  1.0  -0.2364
  N  N81  1  0.761800  0.849900  0.950900  1.0  -0.2399
  N  N82  1  0.261800  0.650100  0.049100  1.0  -0.2354
  N  N83  1  0.738200  0.150100  0.450900  1.0  -0.2417
  N  N84  1  0.238200  0.349900  0.549100  1.0  -0.2378
  N  N85  1  0.950900  0.761800  0.849900  1.0  -0.2377
  N  N86  1  0.049100  0.261800  0.650100  1.0  -0.2362
  N  N87  1  0.450900  0.738200  0.150100  1.0  -0.2376
  N  N88  1  0.549100  0.238200  0.349900  1.0  -0.2357
  N  N89  1  0.745300  0.745300  0.745300  1.0  -0.3624
  N  N90  1  0.754700  0.254700  0.245300  1.0  -0.3605
  N  N91  1  0.254700  0.245300  0.754700  1.0  -0.3602
  N  N92  1  0.245300  0.754700  0.254700  1.0  -0.3639
