# generated using pymatgen
data_CdH8C11N3O4
_symmetry_space_group_name_H-M   'P 1'
_cell_length_a   9.59960000
_cell_length_b   9.76380000
_cell_length_c   9.86600000
_cell_angle_alpha   88.15000000
_cell_angle_beta   77.43100000
_cell_angle_gamma   64.29300000
_symmetry_Int_Tables_number   1
_chemical_formula_structural   CdH8C11N3O4
_chemical_formula_sum   'Cd2 H16 C22 N6 O8'
_cell_volume   811.20168767
_cell_formula_units_Z   2
loop_
 _symmetry_equiv_pos_site_id
 _symmetry_equiv_pos_as_xyz
  1  'x, y, z'
loop_
 _atom_site_type_symbol
 _atom_site_label
 _atom_site_symmetry_multiplicity
 _atom_site_fract_x
 _atom_site_fract_y
 _atom_site_fract_z
 _atom_site_occupancy
 _atom_site_charge
  Cd  Cd1  1  0.951940  0.226670  0.028310  1.0  1.0468
  Cd  Cd2  1  0.048060  0.773330  0.971690  1.0  1.0461
  H  H3  1  0.415600  0.131200  0.434500  1.0  0.0943
  H  H4  1  0.766700  0.672100  0.114400  1.0  0.0766
  H  H5  1  0.206400  0.416700  0.306100  1.0  0.0977
  H  H6  1  0.629500  0.005500  0.540900  1.0  0.0944
  H  H7  1  0.716800  0.908000  0.813300  1.0  0.0962
  H  H8  1  0.584400  0.868800  0.565500  1.0  0.0948
  H  H9  1  0.370500  0.994500  0.459100  1.0  0.0939
  H  H10  1  0.793600  0.583300  0.693900  1.0  0.0983
  H  H11  1  0.479800  0.168300  0.170400  1.0  0.1069
  H  H12  1  0.773300  0.471000  0.501400  1.0  0.1122
  H  H13  1  0.226700  0.529000  0.498600  1.0  0.1118
  H  H14  1  0.520200  0.831700  0.829600  1.0  0.1068
  H  H15  1  0.845300  0.956800  0.310800  1.0  0.093
  H  H16  1  0.154700  0.043200  0.689200  1.0  0.0929
  H  H17  1  0.233300  0.327900  0.885600  1.0  0.0763
  H  H18  1  0.283200  0.092000  0.186700  1.0  0.0964
  C  C19  1  0.370300  0.055000  0.111500  1.0  -0.0769
  C  C20  1  0.197500  0.105700  0.713000  1.0  0.1307
  C  C21  1  0.629700  0.945000  0.888500  1.0  -0.0717
  C  C22  1  0.416100  0.052000  0.496500  1.0  0.0019
  C  C23  1  0.122500  0.450700  0.384000  1.0  -0.0424
  C  C24  1  0.012300  0.565700  0.617900  1.0  -0.1381
  C  C25  1  0.864600  0.482900  0.500100  1.0  -0.0608
  C  C26  1  0.987700  0.434300  0.382100  1.0  -0.1393
  C  C27  1  0.802500  0.894300  0.287000  1.0  0.1303
  C  C28  1  0.242200  0.259000  0.817500  1.0  0.269
  C  C29  1  0.025300  0.636200  0.743900  1.0  0.6756
  C  C30  1  0.487800  0.100400  0.101800  1.0  -0.0608
  C  C31  1  0.877500  0.549300  0.616000  1.0  -0.0389
  C  C32  1  0.974700  0.363800  0.256100  1.0  0.6724
  C  C33  1  0.620700  0.045700  0.989500  1.0  -0.1523
  C  C34  1  0.247700  0.909500  0.015700  1.0  0.702
  C  C35  1  0.135400  0.517100  0.499900  1.0  -0.0601
  C  C36  1  0.512200  0.899600  0.898200  1.0  -0.0614
  C  C37  1  0.757800  0.741000  0.182500  1.0  0.2677
  C  C38  1  0.583900  0.948000  0.503500  1.0  0.0025
  C  C39  1  0.752300  0.090500  0.984300  1.0  0.7039
  C  C40  1  0.379300  0.954300  0.010500  1.0  -0.1542
  N  N41  1  0.648400  0.780300  0.299400  1.0  -0.37
  N  N42  1  0.854700  0.807900  0.169500  1.0  -0.3988
  N  N43  1  0.351600  0.219700  0.700600  1.0  -0.3687
  N  N44  1  0.320000  0.121500  0.634100  1.0  0.1832
  N  N45  1  0.680000  0.878500  0.365900  1.0  0.1822
  N  N46  1  0.145300  0.192100  0.830500  1.0  -0.3996
  O  O47  1  0.057600  0.364500  0.139500  1.0  -0.5736
  O  O48  1  0.120600  0.695400  0.730900  1.0  -0.6194
  O  O49  1  0.885400  0.015900  0.903300  1.0  -0.6793
  O  O50  1  0.942400  0.635500  0.860500  1.0  -0.576
  O  O51  1  0.727700  0.199200  0.064300  1.0  -0.6086
  O  O52  1  0.114600  0.984100  0.096700  1.0  -0.6794
  O  O53  1  0.879400  0.304600  0.269100  1.0  -0.6212
  O  O54  1  0.272300  0.800800  0.935700  1.0  -0.6051
