# generated using pymatgen
data_CdH9C11(N3O2)2
_symmetry_space_group_name_H-M   'P 1'
_cell_length_a   10.85120000
_cell_length_b   11.01400000
_cell_length_c   17.23700000
_cell_angle_alpha   106.17100000
_cell_angle_beta   90.00000000
_cell_angle_gamma   90.00000000
_symmetry_Int_Tables_number   1
_chemical_formula_structural   CdH9C11(N3O2)2
_chemical_formula_sum   'Cd4 H36 C44 N24 O16'
_cell_volume   1978.57445310
_cell_formula_units_Z   4
loop_
 _symmetry_equiv_pos_site_id
 _symmetry_equiv_pos_as_xyz
  1  'x, y, z'
loop_
 _atom_site_type_symbol
 _atom_site_label
 _atom_site_symmetry_multiplicity
 _atom_site_fract_x
 _atom_site_fract_y
 _atom_site_fract_z
 _atom_site_occupancy
 _atom_site_charge
  Cd  Cd1  1  0.314500  0.878700  0.684430  1.0  0.9221
  Cd  Cd2  1  0.685500  0.121300  0.315570  1.0  0.9209
  Cd  Cd3  1  0.814500  0.621300  0.815570  1.0  0.9207
  Cd  Cd4  1  0.185500  0.378700  0.184430  1.0  0.9222
  H  H5  1  0.803700  0.292400  0.794400  1.0  0.0961
  H  H6  1  0.241100  0.396100  0.649500  1.0  0.1037
  H  H7  1  0.166200  0.448000  0.001800  1.0  0.0552
  H  H8  1  0.333800  0.948000  0.501800  1.0  0.0547
  H  H9  1  0.847200  0.395200  0.551000  1.0  0.1129
  H  H10  1  0.708900  0.143100  0.943900  1.0  0.113
  H  H11  1  0.590100  0.715300  0.683100  1.0  0.0867
  H  H12  1  0.758900  0.603900  0.350500  1.0  0.1049
  H  H13  1  0.591000  0.268400  0.509000  1.0  0.1105
  H  H14  1  0.129300  0.007100  0.086700  1.0  0.0959
  H  H15  1  0.208900  0.356900  0.556100  1.0  0.1133
  H  H16  1  0.696300  0.792400  0.294400  1.0  0.0957
  H  H17  1  0.909000  0.768400  0.009000  1.0  0.1109
  H  H18  1  0.152800  0.604800  0.449000  1.0  0.1119
  H  H19  1  0.258900  0.896100  0.149500  1.0  0.1028
  H  H20  1  0.048200  0.910900  0.118100  1.0  0.1213
  H  H21  1  0.629300  0.492900  0.413300  1.0  0.0959
  H  H22  1  0.548200  0.589100  0.381900  1.0  0.1193
  H  H23  1  0.870700  0.992900  0.913300  1.0  0.0957
  H  H24  1  0.303700  0.207600  0.705600  1.0  0.0967
  H  H25  1  0.409900  0.284700  0.316900  1.0  0.0876
  H  H26  1  0.451800  0.410900  0.618100  1.0  0.12
  H  H27  1  0.409000  0.731600  0.491000  1.0  0.1105
  H  H28  1  0.909900  0.215300  0.183100  1.0  0.087
  H  H29  1  0.347200  0.104800  0.949000  1.0  0.1121
  H  H30  1  0.791100  0.643100  0.443900  1.0  0.1142
  H  H31  1  0.741100  0.103900  0.850500  1.0  0.1049
  H  H32  1  0.951800  0.089100  0.881900  1.0  0.1186
  H  H33  1  0.291100  0.856900  0.056100  1.0  0.1135
  H  H34  1  0.091000  0.231600  0.991000  1.0  0.1108
  H  H35  1  0.833800  0.552000  0.998200  1.0  0.055
  H  H36  1  0.370700  0.507100  0.586700  1.0  0.0959
  H  H37  1  0.196300  0.707600  0.205600  1.0  0.0955
  H  H38  1  0.652800  0.895200  0.051000  1.0  0.1132
  H  H39  1  0.090100  0.784700  0.816900  1.0  0.0875
  H  H40  1  0.666200  0.052000  0.498200  1.0  0.0545
  C  C41  1  0.932700  0.401900  0.448100  1.0  -0.1196
  C  C42  1  0.091100  0.562500  0.469700  1.0  -0.099
  C  C43  1  0.692300  0.835400  0.349700  1.0  0.12
  C  C44  1  0.307700  0.164600  0.650300  1.0  0.1178
  C  C45  1  0.525300  0.035000  0.082900  1.0  -0.0796
  C  C46  1  0.032500  0.211900  0.025900  1.0  0.1422
  C  C47  1  0.561800  0.072400  0.170400  1.0  0.6823
  C  C48  1  0.432400  0.298200  0.371300  1.0  0.2487
  C  C49  1  0.408900  0.062500  0.969700  1.0  -0.1002
  C  C50  1  0.227700  0.852300  0.095700  1.0  -0.0266
  C  C51  1  0.932400  0.201800  0.128700  1.0  0.2471
  C  C52  1  0.888100  0.082700  0.920900  1.0  -0.0215
  C  C53  1  0.272300  0.352300  0.595700  1.0  -0.024
  C  C54  1  0.676600  0.973100  0.460100  1.0  0.2636
  C  C55  1  0.807700  0.335400  0.849700  1.0  0.1204
  C  C56  1  0.467500  0.711900  0.525900  1.0  0.143
  C  C57  1  0.474700  0.965000  0.917100  1.0  -0.0805
  C  C58  1  0.567600  0.701800  0.628700  1.0  0.2464
  C  C59  1  0.967500  0.788100  0.974100  1.0  0.1439
  C  C60  1  0.974700  0.535000  0.582900  1.0  -0.0796
  C  C61  1  0.852700  0.302100  0.393800  1.0  0.7035
  C  C62  1  0.388100  0.417300  0.579100  1.0  -0.0223
  C  C63  1  0.176600  0.526900  0.039900  1.0  0.2657
  C  C64  1  0.067600  0.798200  0.871300  1.0  0.2472
  C  C65  1  0.727700  0.647700  0.404300  1.0  -0.0237
  C  C66  1  0.611900  0.582700  0.420900  1.0  -0.0195
  C  C67  1  0.192300  0.664600  0.150300  1.0  0.1185
  C  C68  1  0.025300  0.465000  0.417100  1.0  -0.0807
  C  C69  1  0.323400  0.026900  0.539900  1.0  0.2654
  C  C70  1  0.938200  0.572400  0.670400  1.0  0.6808
  C  C71  1  0.647300  0.802100  0.893800  1.0  0.7033
  C  C72  1  0.591100  0.937500  0.030300  1.0  -0.1023
  C  C73  1  0.438200  0.927600  0.829600  1.0  0.6804
  C  C74  1  0.111900  0.917300  0.079100  1.0  -0.0207
  C  C75  1  0.061800  0.427600  0.329600  1.0  0.6791
  C  C76  1  0.823400  0.473100  0.960100  1.0  0.2635
  C  C77  1  0.067300  0.598100  0.551900  1.0  -0.1225
  C  C78  1  0.908900  0.437500  0.530300  1.0  -0.1033
  C  C79  1  0.532500  0.288100  0.474100  1.0  0.1423
  C  C80  1  0.772300  0.147700  0.904300  1.0  -0.0214
  C  C81  1  0.567300  0.901900  0.948100  1.0  -0.1234
  C  C82  1  0.147300  0.697900  0.606200  1.0  0.7042
  C  C83  1  0.352700  0.197900  0.106200  1.0  0.7049
  C  C84  1  0.432700  0.098100  0.051900  1.0  -0.1226
  N  N85  1  0.366900  0.368900  0.431300  1.0  -0.3583
  N  N86  1  0.805700  0.368800  0.981000  1.0  -0.3681
  N  N87  1  0.633100  0.631100  0.568700  1.0  -0.3609
  N  N88  1  0.065300  0.862400  0.997400  1.0  0.1732
  N  N89  1  0.194300  0.631200  0.019000  1.0  -0.3676
  N  N90  1  0.825500  0.459000  0.879400  1.0  -0.4012
  N  N91  1  0.866900  0.131100  0.068700  1.0  -0.3598
  N  N92  1  0.305700  0.131200  0.519000  1.0  -0.367
  N  N93  1  0.034900  0.253800  0.105900  1.0  -0.4188
  N  N94  1  0.703700  0.781300  0.408900  1.0  0.1759
  N  N95  1  0.296300  0.218700  0.591100  1.0  0.176
  N  N96  1  0.203700  0.718700  0.091100  1.0  0.175
  N  N97  1  0.796300  0.281300  0.908900  1.0  0.1768
  N  N98  1  0.965100  0.746200  0.894100  1.0  -0.419
  N  N99  1  0.694300  0.868800  0.481000  1.0  -0.3695
  N  N100  1  0.534900  0.246200  0.394100  1.0  -0.4193
  N  N101  1  0.565300  0.637600  0.502600  1.0  0.1731
  N  N102  1  0.174500  0.541000  0.120600  1.0  -0.4027
  N  N103  1  0.934700  0.137600  0.002600  1.0  0.1729
  N  N104  1  0.434700  0.362400  0.497400  1.0  0.1726
  N  N105  1  0.133100  0.868900  0.931300  1.0  -0.3618
  N  N106  1  0.674500  0.959000  0.379400  1.0  -0.4018
  N  N107  1  0.465100  0.753800  0.605900  1.0  -0.4182
  N  N108  1  0.325500  0.041000  0.620600  1.0  -0.4031
  O  O109  1  0.105500  0.320300  0.298590  1.0  -0.5833
  O  O110  1  0.319500  0.187400  0.172700  1.0  -0.6227
  O  O111  1  0.394500  0.820300  0.798590  1.0  -0.5833
  O  O112  1  0.819800  0.211600  0.421200  1.0  -0.5998
  O  O113  1  0.894500  0.679700  0.701410  1.0  -0.5832
  O  O114  1  0.555700  0.989500  0.208400  1.0  -0.6187
  O  O115  1  0.319800  0.288400  0.078800  1.0  -0.6006
  O  O116  1  0.680200  0.711600  0.921200  1.0  -0.6004
  O  O117  1  0.605500  0.179700  0.201410  1.0  -0.5834
  O  O118  1  0.944300  0.489500  0.708400  1.0  -0.6193
  O  O119  1  0.819500  0.312600  0.327300  1.0  -0.624
  O  O120  1  0.680500  0.812600  0.827300  1.0  -0.6233
  O  O121  1  0.180200  0.788400  0.578800  1.0  -0.6017
  O  O122  1  0.444300  0.010500  0.791600  1.0  -0.618
  O  O123  1  0.180500  0.687400  0.672700  1.0  -0.6236
  O  O124  1  0.055700  0.510500  0.291600  1.0  -0.6176
