# generated using pymatgen
data_UP2H8(CO)6
_symmetry_space_group_name_H-M   'P 1'
_cell_length_a   8.79820000
_cell_length_b   11.88760000
_cell_length_c   12.64460000
_cell_angle_alpha   95.21900000
_cell_angle_beta   106.75200000
_cell_angle_gamma   96.98000000
_symmetry_Int_Tables_number   1
_chemical_formula_structural   UP2H8(CO)6
_chemical_formula_sum   'U3 P6 H24 C18 O18'
_cell_volume   1245.88967019
_cell_formula_units_Z   3
loop_
 _symmetry_equiv_pos_site_id
 _symmetry_equiv_pos_as_xyz
  1  'x, y, z'
loop_
 _atom_site_type_symbol
 _atom_site_label
 _atom_site_symmetry_multiplicity
 _atom_site_fract_x
 _atom_site_fract_y
 _atom_site_fract_z
 _atom_site_occupancy
 _atom_site_charge
  U  U1  1  0.155610  0.094400  0.246090  1.0  1.8125
  U  U2  1  0.844390  0.905600  0.753910  1.0  1.8091
  U  U3  1  0.500000  0.500000  0.500000  1.0  1.7706
  P  P4  1  0.324000  0.217040  0.542200  1.0  1.5459
  P  P5  1  0.846620  0.586520  0.733050  1.0  1.5472
  P  P6  1  0.979650  0.172630  0.965480  1.0  1.5239
  P  P7  1  0.676000  0.782960  0.457800  1.0  1.5486
  P  P8  1  0.153380  0.413480  0.266950  1.0  1.5481
  P  P9  1  0.020350  0.827370  0.034520  1.0  1.526
  H  H10  1  0.070100  0.425500  0.592100  1.0  0.097
  H  H11  1  0.123800  0.447600  0.922700  1.0  0.0947
  H  H12  1  0.168500  0.152500  0.754900  1.0  0.1021
  H  H13  1  0.058400  0.244000  0.485900  1.0  0.1349
  H  H14  1  0.076100  0.131700  0.546700  1.0  0.1437
  H  H15  1  0.092400  0.610600  0.699800  1.0  0.1455
  H  H16  1  0.117000  0.619800  0.830700  1.0  0.1374
  H  H17  1  0.225300  0.292900  0.025600  1.0  0.1157
  H  H18  1  0.241400  0.175500  0.959300  1.0  0.1362
  H  H19  1  0.407000  0.078500  0.625000  1.0  0.1897
  H  H20  1  0.702000  0.511000  0.826000  1.0  0.2566
  H  H21  1  0.817000  0.278000  0.877900  1.0  0.2012
  H  H22  1  0.929900  0.574500  0.407900  1.0  0.0966
  H  H23  1  0.876200  0.552400  0.077300  1.0  0.0941
  H  H24  1  0.831500  0.847500  0.245100  1.0  0.1027
  H  H25  1  0.941600  0.756000  0.514100  1.0  0.1355
  H  H26  1  0.923900  0.868300  0.453300  1.0  0.1439
  H  H27  1  0.907600  0.389400  0.300200  1.0  0.1447
  H  H28  1  0.883000  0.380200  0.169300  1.0  0.1377
  H  H29  1  0.774700  0.707100  0.974400  1.0  0.1159
  H  H30  1  0.758600  0.824500  0.040700  1.0  0.1357
  H  H31  1  0.593000  0.921500  0.375000  1.0  0.1899
  H  H32  1  0.298000  0.489000  0.174000  1.0  0.2581
  H  H33  1  0.183000  0.722000  0.122100  1.0  0.1997
  C  C34  1  0.120500  0.279300  0.656900  1.0  0.0734
  C  C35  1  0.091000  0.391500  0.658900  1.0  -0.185
  C  C36  1  0.091400  0.454800  0.757300  1.0  0.0727
  C  C37  1  0.122500  0.404800  0.855200  1.0  -0.1833
  C  C38  1  0.152000  0.291900  0.854600  1.0  0.0076
  C  C39  1  0.149900  0.229500  0.755600  1.0  -0.1974
  C  C40  1  0.124200  0.212300  0.550500  1.0  -0.48
  C  C41  1  0.055000  0.575400  0.757700  1.0  -0.5088
  C  C42  1  0.172300  0.235400  0.959300  1.0  -0.4364
  C  C43  1  0.879500  0.720700  0.343100  1.0  0.0733
  C  C44  1  0.909000  0.608500  0.341100  1.0  -0.1793
  C  C45  1  0.908600  0.545200  0.242700  1.0  0.0725
  C  C46  1  0.877500  0.595200  0.144800  1.0  -0.1823
  C  C47  1  0.848000  0.708100  0.145400  1.0  0.0067
  C  C48  1  0.850100  0.770500  0.244400  1.0  -0.2077
  C  C49  1  0.875800  0.787700  0.449500  1.0  -0.4794
  C  C50  1  0.945000  0.424600  0.242300  1.0  -0.5088
  C  C51  1  0.827700  0.764600  0.040700  1.0  -0.4366
  O  O52  1  0.404700  0.340800  0.565200  1.0  -0.9383
  O  O53  1  0.322900  0.151700  0.434000  1.0  -0.9205
  O  O54  1  0.420700  0.158800  0.641600  1.0  -0.5108
  O  O55  1  0.824300  0.708100  0.719600  1.0  -0.9552
  O  O56  1  0.745400  0.502200  0.631000  1.0  -0.8923
  O  O57  1  0.807500  0.548500  0.838400  1.0  -0.5738
  O  O58  1  0.869600  0.268600  0.952100  1.0  -0.537
  O  O59  1  0.909000  0.077800  0.870100  1.0  -0.9662
  O  O60  1  0.992900  0.139300  0.079800  1.0  -0.9322
  O  O61  1  0.595300  0.659200  0.434800  1.0  -0.9375
  O  O62  1  0.677100  0.848300  0.566000  1.0  -0.9238
  O  O63  1  0.579300  0.841200  0.358400  1.0  -0.5108
  O  O64  1  0.175700  0.291900  0.280400  1.0  -0.9538
  O  O65  1  0.254600  0.497800  0.369000  1.0  -0.8977
  O  O66  1  0.192500  0.451500  0.161600  1.0  -0.5732
  O  O67  1  0.130400  0.731400  0.047900  1.0  -0.5385
  O  O68  1  0.091000  0.922200  0.129900  1.0  -0.9699
  O  O69  1  0.007100  0.860700  0.920200  1.0  -0.9307
