# generated using pymatgen
data_ZnH7C5NO4
_symmetry_space_group_name_H-M   'P 1'
_cell_length_a   7.22000000
_cell_length_b   10.46300000
_cell_length_c   11.19000000
_cell_angle_alpha   90.00000000
_cell_angle_beta   90.00000000
_cell_angle_gamma   90.00000000
_symmetry_Int_Tables_number   1
_chemical_formula_structural   ZnH7C5NO4
_chemical_formula_sum   'Zn4 H28 C20 N4 O16'
_cell_volume   845.32460340
_cell_formula_units_Z   4
loop_
 _symmetry_equiv_pos_site_id
 _symmetry_equiv_pos_as_xyz
  1  'x, y, z'
loop_
 _atom_site_type_symbol
 _atom_site_label
 _atom_site_symmetry_multiplicity
 _atom_site_fract_x
 _atom_site_fract_y
 _atom_site_fract_z
 _atom_site_occupancy
 _atom_site_charge
  Zn  Zn1  1  0.372100  0.678800  0.209200  1.0  0.9081
  Zn  Zn2  1  0.872100  0.321200  0.290800  1.0  0.9097
  Zn  Zn3  1  0.127900  0.178800  0.790800  1.0  0.9078
  Zn  Zn4  1  0.627900  0.821200  0.709200  1.0  0.9086
  H  H5  1  0.401000  0.460000  0.476000  1.0  0.0956
  H  H6  1  0.129000  0.503000  0.574000  1.0  0.0978
  H  H7  1  0.248000  0.629000  0.599000  1.0  0.0968
  H  H8  1  0.950000  0.632000  0.427000  1.0  0.126
  H  H9  1  0.120000  0.757000  0.456000  1.0  0.1028
  H  H10  1  0.549000  0.632000  0.379000  1.0  0.3465
  H  H11  1  0.398000  0.709000  0.426000  1.0  0.3149
  H  H12  1  0.901000  0.540000  0.024000  1.0  0.0943
  H  H13  1  0.629000  0.497000  0.926000  1.0  0.0984
  H  H14  1  0.748000  0.371000  0.901000  1.0  0.0972
  H  H15  1  0.450000  0.368000  0.073000  1.0  0.1274
  H  H16  1  0.620000  0.243000  0.044000  1.0  0.1039
  H  H17  1  0.049000  0.368000  0.121000  1.0  0.3472
  H  H18  1  0.898000  0.291000  0.074000  1.0  0.3144
  H  H19  1  0.099000  0.960000  0.524000  1.0  0.0943
  H  H20  1  0.371000  0.003000  0.426000  1.0  0.0975
  H  H21  1  0.252000  0.129000  0.401000  1.0  0.0967
  H  H22  1  0.550000  0.132000  0.573000  1.0  0.1274
  H  H23  1  0.380000  0.257000  0.544000  1.0  0.104
  H  H24  1  0.951000  0.132000  0.621000  1.0  0.3471
  H  H25  1  0.102000  0.209000  0.574000  1.0  0.3156
  H  H26  1  0.599000  0.040000  0.976000  1.0  0.0943
  H  H27  1  0.871000  0.997000  0.074000  1.0  0.0971
  H  H28  1  0.752000  0.871000  0.099000  1.0  0.0967
  H  H29  1  0.050000  0.868000  0.927000  1.0  0.1259
  H  H30  1  0.880000  0.743000  0.956000  1.0  0.1029
  H  H31  1  0.451000  0.868000  0.879000  1.0  0.3485
  H  H32  1  0.602000  0.791000  0.926000  1.0  0.3154
  C  C33  1  0.210200  0.469700  0.339900  1.0  0.6309
  C  C34  1  0.318600  0.537700  0.439500  1.0  0.0428
  C  C35  1  0.187200  0.584300  0.535900  1.0  -0.1291
  C  C36  1  0.036100  0.672500  0.490400  1.0  -0.3227
  C  C37  1  0.912100  0.724800  0.589000  1.0  0.6961
  C  C38  1  0.710200  0.530300  0.160100  1.0  0.6317
  C  C39  1  0.818600  0.462300  0.060500  1.0  0.0434
  C  C40  1  0.687200  0.415700  0.964100  1.0  -0.1292
  C  C41  1  0.536100  0.327500  0.009600  1.0  -0.3227
  C  C42  1  0.412100  0.275200  0.911000  1.0  0.6977
  C  C43  1  0.289800  0.969700  0.660100  1.0  0.6327
  C  C44  1  0.181400  0.037700  0.560500  1.0  0.0426
  C  C45  1  0.312800  0.084300  0.464100  1.0  -0.1293
  C  C46  1  0.463900  0.172500  0.509600  1.0  -0.3226
  C  C47  1  0.587900  0.224800  0.411000  1.0  0.6971
  C  C48  1  0.789800  0.030300  0.839900  1.0  0.6309
  C  C49  1  0.681400  0.962300  0.939500  1.0  0.0427
  C  C50  1  0.812800  0.915700  0.035900  1.0  -0.1291
  C  C51  1  0.963900  0.827500  0.990400  1.0  -0.3226
  C  C52  1  0.087900  0.775200  0.089000  1.0  0.6964
  N  N53  1  0.432600  0.641900  0.389800  1.0  -0.6439
  N  N54  1  0.932600  0.358100  0.110200  1.0  -0.6446
  N  N55  1  0.067400  0.141900  0.610200  1.0  -0.6451
  N  N56  1  0.567400  0.858100  0.889800  1.0  -0.6442
  O  O57  1  0.226400  0.506500  0.234600  1.0  -0.5553
  O  O58  1  0.107100  0.378800  0.374600  1.0  -0.5928
  O  O59  1  0.765800  0.784700  0.554200  1.0  -0.6086
  O  O60  1  0.944600  0.708600  0.697200  1.0  -0.6099
  O  O61  1  0.726400  0.493500  0.265400  1.0  -0.5548
  O  O62  1  0.607100  0.621200  0.125400  1.0  -0.5928
  O  O63  1  0.265800  0.215300  0.945800  1.0  -0.6086
  O  O64  1  0.444600  0.291400  0.802800  1.0  -0.6086
  O  O65  1  0.273600  0.006500  0.765400  1.0  -0.5546
  O  O66  1  0.392900  0.878800  0.625400  1.0  -0.5927
  O  O67  1  0.734200  0.284700  0.445800  1.0  -0.6074
  O  O68  1  0.555400  0.208600  0.302800  1.0  -0.6091
  O  O69  1  0.773600  0.993500  0.734600  1.0  -0.5554
  O  O70  1  0.892900  0.121200  0.874600  1.0  -0.5934
  O  O71  1  0.234200  0.715300  0.054200  1.0  -0.6077
  O  O72  1  0.055400  0.791400  0.197200  1.0  -0.6089
