# generated using pymatgen
data_ZnH7C5NO4
_symmetry_space_group_name_H-M   'P 1'
_cell_length_a   7.17700000
_cell_length_b   10.39600000
_cell_length_c   11.12100000
_cell_angle_alpha   90.00000000
_cell_angle_beta   90.00000000
_cell_angle_gamma   90.00000000
_symmetry_Int_Tables_number   1
_chemical_formula_structural   ZnH7C5NO4
_chemical_formula_sum   'Zn4 H28 C20 N4 O16'
_cell_volume   829.76107513
_cell_formula_units_Z   4
loop_
 _symmetry_equiv_pos_site_id
 _symmetry_equiv_pos_as_xyz
  1  'x, y, z'
loop_
 _atom_site_type_symbol
 _atom_site_label
 _atom_site_symmetry_multiplicity
 _atom_site_fract_x
 _atom_site_fract_y
 _atom_site_fract_z
 _atom_site_occupancy
 _atom_site_charge
  Zn  Zn1  1  0.377440  0.070910  0.040910  1.0  0.9099
  Zn  Zn2  1  0.122560  0.929090  0.540910  1.0  0.9089
  Zn  Zn3  1  0.622560  0.570910  0.459090  1.0  0.9089
  Zn  Zn4  1  0.877440  0.429090  0.959090  1.0  0.9086
  H  H5  1  0.787900  0.123600  0.819400  1.0  0.1295
  H  H6  1  0.651900  0.003200  0.802000  1.0  0.1174
  H  H7  1  0.620300  0.240300  0.674300  1.0  0.0969
  H  H8  1  0.487700  0.119200  0.651300  1.0  0.0856
  H  H9  1  0.341600  0.277100  0.772300  1.0  0.0986
  H  H10  1  0.313000  0.041000  0.816000  1.0  0.3255
  H  H11  1  0.199000  0.129000  0.866000  1.0  0.3306
  H  H12  1  0.712100  0.876400  0.319400  1.0  0.1298
  H  H13  1  0.848100  0.996800  0.302000  1.0  0.1174
  H  H14  1  0.879700  0.759700  0.174300  1.0  0.0966
  H  H15  1  0.012300  0.880800  0.151300  1.0  0.0855
  H  H16  1  0.158400  0.722900  0.272300  1.0  0.0983
  H  H17  1  0.187000  0.959000  0.316000  1.0  0.3247
  H  H18  1  0.301000  0.871000  0.366000  1.0  0.3293
  H  H19  1  0.212100  0.623600  0.680600  1.0  0.13
  H  H20  1  0.348100  0.503200  0.698000  1.0  0.1172
  H  H21  1  0.379700  0.740300  0.825700  1.0  0.0953
  H  H22  1  0.512300  0.619200  0.848700  1.0  0.0847
  H  H23  1  0.658400  0.777100  0.727700  1.0  0.0985
  H  H24  1  0.687000  0.541000  0.684000  1.0  0.3269
  H  H25  1  0.801000  0.629000  0.634000  1.0  0.3295
  H  H26  1  0.287900  0.376400  0.180600  1.0  0.13
  H  H27  1  0.151900  0.496800  0.198000  1.0  0.1177
  H  H28  1  0.120300  0.259700  0.325700  1.0  0.0972
  H  H29  1  0.987700  0.380800  0.348700  1.0  0.0844
  H  H30  1  0.841600  0.222900  0.227700  1.0  0.0986
  H  H31  1  0.813000  0.459000  0.184000  1.0  0.3249
  H  H32  1  0.699000  0.371000  0.134000  1.0  0.3312
  C  C33  1  0.837800  0.024600  0.661710  1.0  0.6932
  C  C34  1  0.711200  0.076500  0.759910  1.0  -0.3252
  C  C35  1  0.560600  0.165200  0.713380  1.0  -0.1337
  C  C36  1  0.536500  0.282600  0.909420  1.0  0.6352
  C  C37  1  0.428000  0.213400  0.810140  1.0  0.0451
  C  C38  1  0.662200  0.975400  0.161710  1.0  0.6935
  C  C39  1  0.788800  0.923500  0.259910  1.0  -0.3247
  C  C40  1  0.939400  0.834800  0.213380  1.0  -0.1333
  C  C41  1  0.963500  0.717400  0.409420  1.0  0.6352
  C  C42  1  0.072000  0.786600  0.310140  1.0  0.0452
  C  C43  1  0.162200  0.524600  0.838290  1.0  0.6924
  C  C44  1  0.288800  0.576500  0.740090  1.0  -0.3261
  C  C45  1  0.439400  0.665200  0.786620  1.0  -0.1346
  C  C46  1  0.463500  0.782600  0.590580  1.0  0.6348
  C  C47  1  0.572000  0.713400  0.689860  1.0  0.0451
  C  C48  1  0.337800  0.475400  0.338290  1.0  0.6929
  C  C49  1  0.211200  0.423500  0.240090  1.0  -0.3274
  C  C50  1  0.060600  0.334800  0.286620  1.0  -0.1339
  C  C51  1  0.036500  0.217400  0.090580  1.0  0.6341
  C  C52  1  0.928000  0.286600  0.189860  1.0  0.046
  N  N53  1  0.314400  0.108520  0.860950  1.0  -0.6551
  N  N54  1  0.185600  0.891480  0.360950  1.0  -0.6552
  N  N55  1  0.685600  0.608520  0.639050  1.0  -0.6565
  N  N56  1  0.814400  0.391480  0.139050  1.0  -0.6564
  O  O57  1  0.983900  0.964480  0.696760  1.0  -0.6031
  O  O58  1  0.802400  0.038980  0.553210  1.0  -0.6015
  O  O59  1  0.520400  0.244910  0.015690  1.0  -0.5543
  O  O60  1  0.640000  0.373000  0.874860  1.0  -0.5876
  O  O61  1  0.516100  0.035520  0.196760  1.0  -0.6057
  O  O62  1  0.697600  0.961020  0.053210  1.0  -0.6037
  O  O63  1  0.979600  0.755090  0.515690  1.0  -0.5543
  O  O64  1  0.860000  0.627000  0.374860  1.0  -0.5878
  O  O65  1  0.016100  0.464480  0.803240  1.0  -0.6054
  O  O66  1  0.197600  0.538980  0.946790  1.0  -0.6027
  O  O67  1  0.479600  0.744910  0.484310  1.0  -0.5552
  O  O68  1  0.360000  0.873000  0.625140  1.0  -0.5875
  O  O69  1  0.483900  0.535520  0.303240  1.0  -0.6043
  O  O70  1  0.302400  0.461020  0.446790  1.0  -0.6034
  O  O71  1  0.020400  0.255090  0.984310  1.0  -0.5549
  O  O72  1  0.140000  0.127000  0.125140  1.0  -0.5874
