# generated using pymatgen
data_ZnH7C15(NO2)2
_symmetry_space_group_name_H-M   'P 1'
_cell_length_a   20.79700000
_cell_length_b   20.79700000
_cell_length_c   16.01200000
_cell_angle_alpha   90.00000000
_cell_angle_beta   90.00000000
_cell_angle_gamma   90.00000000
_symmetry_Int_Tables_number   1
_chemical_formula_structural   ZnH7C15(NO2)2
_chemical_formula_sum   'Zn16 H112 C240 N32 O64'
_cell_volume   6925.43352651
_cell_formula_units_Z   16
loop_
 _symmetry_equiv_pos_site_id
 _symmetry_equiv_pos_as_xyz
  1  'x, y, z'
loop_
 _atom_site_type_symbol
 _atom_site_label
 _atom_site_symmetry_multiplicity
 _atom_site_fract_x
 _atom_site_fract_y
 _atom_site_fract_z
 _atom_site_occupancy
 _atom_site_charge
  Zn  Zn1  1  0.415300  0.500120  0.518990  1.0  0.9663
  Zn  Zn2  1  0.915300  0.000120  0.018990  1.0  0.9663
  Zn  Zn3  1  0.084700  0.499880  0.018990  1.0  0.9648
  Zn  Zn4  1  0.584700  0.999880  0.518990  1.0  0.9648
  Zn  Zn5  1  0.249880  0.665300  0.768990  1.0  0.9675
  Zn  Zn6  1  0.749880  0.165300  0.268990  1.0  0.9675
  Zn  Zn7  1  0.250120  0.334700  0.268990  1.0  0.9667
  Zn  Zn8  1  0.750120  0.834700  0.768990  1.0  0.9667
  Zn  Zn9  1  0.584700  0.499880  0.481010  1.0  0.9649
  Zn  Zn10  1  0.084700  0.999880  0.981010  1.0  0.9649
  Zn  Zn11  1  0.915300  0.500120  0.981010  1.0  0.9659
  Zn  Zn12  1  0.415300  0.000120  0.481010  1.0  0.9659
  Zn  Zn13  1  0.750120  0.334700  0.231010  1.0  0.9666
  Zn  Zn14  1  0.250120  0.834700  0.731010  1.0  0.9666
  Zn  Zn15  1  0.749880  0.665300  0.731010  1.0  0.9679
  Zn  Zn16  1  0.249880  0.165300  0.231010  1.0  0.9679
  H  H17  1  0.204300  0.511400  0.696200  1.0  0.1121
  H  H18  1  0.173100  0.422800  0.768600  1.0  0.1392
  H  H19  1  0.390700  0.469500  0.727800  1.0  0.1286
  H  H20  1  0.415700  0.370400  0.808000  1.0  0.1454
  H  H21  1  0.379100  0.272700  0.858500  1.0  0.1107
  H  H22  1  0.274200  0.257400  0.896500  1.0  0.1247
  H  H23  1  0.197000  0.319900  0.836000  1.0  0.1518
  H  H24  1  0.704300  0.011400  0.196200  1.0  0.1121
  H  H25  1  0.673100  0.922800  0.268600  1.0  0.1392
  H  H26  1  0.890700  0.969500  0.227800  1.0  0.1286
  H  H27  1  0.915700  0.870400  0.308000  1.0  0.1454
  H  H28  1  0.879100  0.772700  0.358500  1.0  0.1107
  H  H29  1  0.774200  0.757400  0.396500  1.0  0.1247
  H  H30  1  0.697000  0.819900  0.336000  1.0  0.1518
  H  H31  1  0.295700  0.488600  0.196200  1.0  0.1119
  H  H32  1  0.326900  0.577200  0.268600  1.0  0.1391
  H  H33  1  0.109300  0.530500  0.227800  1.0  0.1281
  H  H34  1  0.084300  0.629600  0.308000  1.0  0.1454
  H  H35  1  0.120900  0.727300  0.358500  1.0  0.1106
  H  H36  1  0.225800  0.742600  0.396500  1.0  0.1246
  H  H37  1  0.303000  0.680100  0.336000  1.0  0.1522
  H  H38  1  0.795700  0.988600  0.696200  1.0  0.1119
  H  H39  1  0.826900  0.077200  0.768600  1.0  0.1391
  H  H40  1  0.609300  0.030500  0.727800  1.0  0.1281
  H  H41  1  0.584300  0.129600  0.808000  1.0  0.1454
  H  H42  1  0.620900  0.227300  0.858500  1.0  0.1106
  H  H43  1  0.725800  0.242600  0.896500  1.0  0.1246
  H  H44  1  0.803000  0.180100  0.836000  1.0  0.1522
  H  H45  1  0.238600  0.454300  0.946200  1.0  0.1119
  H  H46  1  0.327200  0.423100  0.018600  1.0  0.1379
  H  H47  1  0.280500  0.640700  0.977800  1.0  0.1278
  H  H48  1  0.379600  0.665700  0.058000  1.0  0.1433
  H  H49  1  0.477300  0.629100  0.108500  1.0  0.1106
  H  H50  1  0.492600  0.524200  0.146500  1.0  0.1243
  H  H51  1  0.430100  0.447000  0.086000  1.0  0.1522
  H  H52  1  0.738600  0.954300  0.446200  1.0  0.1119
  H  H53  1  0.827200  0.923100  0.518600  1.0  0.1379
  H  H54  1  0.780500  0.140700  0.477800  1.0  0.1278
  H  H55  1  0.879600  0.165700  0.558000  1.0  0.1433
  H  H56  1  0.977300  0.129100  0.608500  1.0  0.1106
  H  H57  1  0.992600  0.024200  0.646500  1.0  0.1243
  H  H58  1  0.930100  0.947000  0.586000  1.0  0.1522
  H  H59  1  0.261400  0.545700  0.446200  1.0  0.112
  H  H60  1  0.172800  0.576900  0.518600  1.0  0.1369
  H  H61  1  0.219500  0.359300  0.477800  1.0  0.1284
  H  H62  1  0.120400  0.334300  0.558000  1.0  0.1433
  H  H63  1  0.022700  0.370900  0.608500  1.0  0.111
  H  H64  1  0.007400  0.475800  0.646500  1.0  0.1235
  H  H65  1  0.069900  0.553000  0.586000  1.0  0.1518
  H  H66  1  0.761400  0.045700  0.946200  1.0  0.112
  H  H67  1  0.672800  0.076900  0.018600  1.0  0.1369
  H  H68  1  0.719500  0.859300  0.977800  1.0  0.1284
  H  H69  1  0.620400  0.834300  0.058000  1.0  0.1433
  H  H70  1  0.522700  0.870900  0.108500  1.0  0.111
  H  H71  1  0.507400  0.975800  0.146500  1.0  0.1235
  H  H72  1  0.569900  0.053000  0.086000  1.0  0.1518
  H  H73  1  0.795700  0.488600  0.303800  1.0  0.1118
  H  H74  1  0.826900  0.577200  0.231400  1.0  0.1394
  H  H75  1  0.609300  0.530500  0.272200  1.0  0.1282
  H  H76  1  0.584300  0.629600  0.192000  1.0  0.1456
  H  H77  1  0.620900  0.727300  0.141500  1.0  0.1106
  H  H78  1  0.725800  0.742600  0.103500  1.0  0.1243
  H  H79  1  0.803000  0.680100  0.164000  1.0  0.1524
  H  H80  1  0.295700  0.988600  0.803800  1.0  0.1118
  H  H81  1  0.326900  0.077200  0.731400  1.0  0.1394
  H  H82  1  0.109300  0.030500  0.772200  1.0  0.1282
  H  H83  1  0.084300  0.129600  0.692000  1.0  0.1456
  H  H84  1  0.120900  0.227300  0.641500  1.0  0.1106
  H  H85  1  0.225800  0.242600  0.603500  1.0  0.1243
  H  H86  1  0.303000  0.180100  0.664000  1.0  0.1524
  H  H87  1  0.704300  0.511400  0.803800  1.0  0.1119
  H  H88  1  0.673100  0.422800  0.731400  1.0  0.1393
  H  H89  1  0.890700  0.469500  0.772200  1.0  0.1285
  H  H90  1  0.915700  0.370400  0.692000  1.0  0.1456
  H  H91  1  0.879100  0.272700  0.641500  1.0  0.1107
  H  H92  1  0.774200  0.257400  0.603500  1.0  0.1241
  H  H93  1  0.697000  0.319900  0.664000  1.0  0.1519
  H  H94  1  0.204300  0.011400  0.303800  1.0  0.1119
  H  H95  1  0.173100  0.922800  0.231400  1.0  0.1393
  H  H96  1  0.390700  0.969500  0.272200  1.0  0.1285
  H  H97  1  0.415700  0.870400  0.192000  1.0  0.1456
  H  H98  1  0.379100  0.772700  0.141500  1.0  0.1107
  H  H99  1  0.274200  0.757400  0.103500  1.0  0.1241
  H  H100  1  0.197000  0.819900  0.164000  1.0  0.1519
  H  H101  1  0.761400  0.545700  0.053800  1.0  0.1118
  H  H102  1  0.672800  0.576900  0.981400  1.0  0.1369
  H  H103  1  0.719500  0.359300  0.022200  1.0  0.1284
  H  H104  1  0.620400  0.334300  0.942000  1.0  0.1435
  H  H105  1  0.522700  0.370900  0.891500  1.0  0.1113
  H  H106  1  0.507400  0.475800  0.853500  1.0  0.1231
  H  H107  1  0.569900  0.553000  0.914000  1.0  0.1518
  H  H108  1  0.261400  0.045700  0.553800  1.0  0.1118
  H  H109  1  0.172800  0.076900  0.481400  1.0  0.1369
  H  H110  1  0.219500  0.859300  0.522200  1.0  0.1284
  H  H111  1  0.120400  0.834300  0.442000  1.0  0.1435
  H  H112  1  0.022700  0.870900  0.391500  1.0  0.1113
  H  H113  1  0.007400  0.975800  0.353500  1.0  0.1231
  H  H114  1  0.069900  0.053000  0.414000  1.0  0.1518
  H  H115  1  0.738600  0.454300  0.553800  1.0  0.1117
  H  H116  1  0.827200  0.423100  0.481400  1.0  0.138
  H  H117  1  0.780500  0.640700  0.522200  1.0  0.1277
  H  H118  1  0.879600  0.665700  0.442000  1.0  0.1435
  H  H119  1  0.977300  0.629100  0.391500  1.0  0.1105
  H  H120  1  0.992600  0.524200  0.353500  1.0  0.1238
  H  H121  1  0.930100  0.447000  0.414000  1.0  0.1525
  H  H122  1  0.238600  0.954300  0.053800  1.0  0.1117
  H  H123  1  0.327200  0.923100  0.981400  1.0  0.138
  H  H124  1  0.280500  0.140700  0.022200  1.0  0.1277
  H  H125  1  0.379600  0.165700  0.942000  1.0  0.1435
  H  H126  1  0.477300  0.129100  0.891500  1.0  0.1105
  H  H127  1  0.492600  0.024200  0.853500  1.0  0.1238
  H  H128  1  0.430100  0.947000  0.914000  1.0  0.1525
  C  C129  1  0.396400  0.637500  0.488900  1.0  0.6939
  C  C130  1  0.358000  0.619900  0.561400  1.0  0.0319
  C  C131  1  0.319700  0.656100  0.613900  1.0  0.0436
  C  C132  1  0.308000  0.725400  0.616500  1.0  0.7064
  C  C133  1  0.317400  0.557500  0.655700  1.0  0.3905
  C  C134  1  0.301000  0.500200  0.704100  1.0  -0.0248
  C  C135  1  0.235700  0.484200  0.717400  1.0  -0.0465
  C  C136  1  0.216600  0.430600  0.760000  1.0  -0.1881
  C  C137  1  0.261300  0.388500  0.790100  1.0  -0.0264
  C  C138  1  0.326900  0.401700  0.780100  1.0  -0.0171
  C  C139  1  0.347300  0.460200  0.735000  1.0  -0.0792
  C  C140  1  0.372100  0.361000  0.810500  1.0  -0.1735
  C  C141  1  0.349300  0.304500  0.845700  1.0  -0.0722
  C  C142  1  0.285500  0.292200  0.863000  1.0  -0.068
  C  C143  1  0.240400  0.330200  0.831600  1.0  -0.1457
  C  C144  1  0.896400  0.137500  0.988900  1.0  0.6939
  C  C145  1  0.858000  0.119900  0.061400  1.0  0.0319
  C  C146  1  0.819700  0.156100  0.113900  1.0  0.0436
  C  C147  1  0.808000  0.225400  0.116500  1.0  0.7064
  C  C148  1  0.817400  0.057500  0.155700  1.0  0.3905
  C  C149  1  0.801000  0.000200  0.204100  1.0  -0.0248
  C  C150  1  0.735700  0.984200  0.217400  1.0  -0.0465
  C  C151  1  0.716600  0.930600  0.260000  1.0  -0.1881
  C  C152  1  0.761300  0.888500  0.290100  1.0  -0.0264
  C  C153  1  0.826900  0.901700  0.280100  1.0  -0.0171
  C  C154  1  0.847300  0.960200  0.235000  1.0  -0.0792
  C  C155  1  0.872100  0.861000  0.310500  1.0  -0.1735
  C  C156  1  0.849300  0.804500  0.345700  1.0  -0.0722
  C  C157  1  0.785500  0.792200  0.363000  1.0  -0.068
  C  C158  1  0.740400  0.830200  0.331600  1.0  -0.1457
  C  C159  1  0.103600  0.362500  0.988900  1.0  0.6937
  C  C160  1  0.142000  0.380100  0.061400  1.0  0.031
  C  C161  1  0.180300  0.343900  0.113900  1.0  0.0426
  C  C162  1  0.192000  0.274600  0.116500  1.0  0.7056
  C  C163  1  0.182600  0.442500  0.155700  1.0  0.3906
  C  C164  1  0.199000  0.499800  0.204100  1.0  -0.0247
  C  C165  1  0.264300  0.515800  0.217400  1.0  -0.0478
  C  C166  1  0.283400  0.569400  0.260000  1.0  -0.1879
  C  C167  1  0.238700  0.611500  0.290100  1.0  -0.026
  C  C168  1  0.173100  0.598300  0.280100  1.0  -0.0169
  C  C169  1  0.152700  0.539800  0.235000  1.0  -0.0801
  C  C170  1  0.127900  0.639000  0.310500  1.0  -0.1752
  C  C171  1  0.150700  0.695500  0.345700  1.0  -0.0718
  C  C172  1  0.214500  0.707800  0.363000  1.0  -0.0662
  C  C173  1  0.259600  0.669800  0.331600  1.0  -0.1465
  C  C174  1  0.603600  0.862500  0.488900  1.0  0.6937
  C  C175  1  0.642000  0.880100  0.561400  1.0  0.031
  C  C176  1  0.680300  0.843900  0.613900  1.0  0.0426
  C  C177  1  0.692000  0.774600  0.616500  1.0  0.7056
  C  C178  1  0.682600  0.942500  0.655700  1.0  0.3906
  C  C179  1  0.699000  0.999800  0.704100  1.0  -0.0247
  C  C180  1  0.764300  0.015800  0.717400  1.0  -0.0478
  C  C181  1  0.783400  0.069400  0.760000  1.0  -0.1879
  C  C182  1  0.738700  0.111500  0.790100  1.0  -0.026
  C  C183  1  0.673100  0.098300  0.780100  1.0  -0.0169
  C  C184  1  0.652700  0.039800  0.735000  1.0  -0.0801
  C  C185  1  0.627900  0.139000  0.810500  1.0  -0.1752
  C  C186  1  0.650700  0.195500  0.845700  1.0  -0.0718
  C  C187  1  0.714500  0.207800  0.863000  1.0  -0.0662
  C  C188  1  0.759600  0.169800  0.831600  1.0  -0.1465
  C  C189  1  0.112500  0.646400  0.738900  1.0  0.6981
  C  C190  1  0.130100  0.608000  0.811400  1.0  0.0321
  C  C191  1  0.093900  0.569700  0.863900  1.0  0.0435
  C  C192  1  0.024600  0.558000  0.866500  1.0  0.7058
  C  C193  1  0.192500  0.567400  0.905700  1.0  0.3897
  C  C194  1  0.249800  0.551000  0.954100  1.0  -0.0237
  C  C195  1  0.265800  0.485700  0.967400  1.0  -0.0473
  C  C196  1  0.319400  0.466600  0.010000  1.0  -0.1851
  C  C197  1  0.361500  0.511300  0.040100  1.0  -0.0261
  C  C198  1  0.348300  0.576900  0.030100  1.0  -0.0148
  C  C199  1  0.289800  0.597300  0.985000  1.0  -0.0794
  C  C200  1  0.389000  0.622100  0.060500  1.0  -0.174
  C  C201  1  0.445500  0.599300  0.095700  1.0  -0.0707
  C  C202  1  0.457800  0.535500  0.113000  1.0  -0.0665
  C  C203  1  0.419800  0.490400  0.081600  1.0  -0.1474
  C  C204  1  0.612500  0.146400  0.238900  1.0  0.6981
  C  C205  1  0.630100  0.108000  0.311400  1.0  0.0321
  C  C206  1  0.593900  0.069700  0.363900  1.0  0.0435
  C  C207  1  0.524600  0.058000  0.366500  1.0  0.7058
  C  C208  1  0.692500  0.067400  0.405700  1.0  0.3897
  C  C209  1  0.749800  0.051000  0.454100  1.0  -0.0237
  C  C210  1  0.765800  0.985700  0.467400  1.0  -0.0473
  C  C211  1  0.819400  0.966600  0.510000  1.0  -0.1851
  C  C212  1  0.861500  0.011300  0.540100  1.0  -0.0261
  C  C213  1  0.848300  0.076900  0.530100  1.0  -0.0148
  C  C214  1  0.789800  0.097300  0.485000  1.0  -0.0794
  C  C215  1  0.889000  0.122100  0.560500  1.0  -0.174
  C  C216  1  0.945500  0.099300  0.595700  1.0  -0.0707
  C  C217  1  0.957800  0.035500  0.613000  1.0  -0.0665
  C  C218  1  0.919800  0.990400  0.581600  1.0  -0.1474
  C  C219  1  0.387500  0.353600  0.238900  1.0  0.6962
  C  C220  1  0.369900  0.392000  0.311400  1.0  0.0317
  C  C221  1  0.406100  0.430300  0.363900  1.0  0.0427
  C  C222  1  0.475400  0.442000  0.366500  1.0  0.7053
  C  C223  1  0.307500  0.432600  0.405700  1.0  0.3899
  C  C224  1  0.250200  0.449000  0.454100  1.0  -0.0245
  C  C225  1  0.234200  0.514300  0.467400  1.0  -0.0478
  C  C226  1  0.180600  0.533400  0.510000  1.0  -0.1872
  C  C227  1  0.138500  0.488700  0.540100  1.0  -0.0267
  C  C228  1  0.151700  0.423100  0.530100  1.0  -0.0153
  C  C229  1  0.210200  0.402700  0.485000  1.0  -0.0803
  C  C230  1  0.111000  0.377900  0.560500  1.0  -0.175
  C  C231  1  0.054500  0.400700  0.595700  1.0  -0.0732
  C  C232  1  0.042200  0.464500  0.613000  1.0  -0.0686
  C  C233  1  0.080200  0.509600  0.581600  1.0  -0.1467
  C  C234  1  0.887500  0.853600  0.738900  1.0  0.6962
  C  C235  1  0.869900  0.892000  0.811400  1.0  0.0317
  C  C236  1  0.906100  0.930300  0.863900  1.0  0.0427
  C  C237  1  0.975400  0.942000  0.866500  1.0  0.7053
  C  C238  1  0.807500  0.932600  0.905700  1.0  0.3899
  C  C239  1  0.750200  0.949000  0.954100  1.0  -0.0245
  C  C240  1  0.734200  0.014300  0.967400  1.0  -0.0478
  C  C241  1  0.680600  0.033400  0.010000  1.0  -0.1872
  C  C242  1  0.638500  0.988700  0.040100  1.0  -0.0267
  C  C243  1  0.651700  0.923100  0.030100  1.0  -0.0153
  C  C244  1  0.710200  0.902700  0.985000  1.0  -0.0803
  C  C245  1  0.611000  0.877900  0.060500  1.0  -0.175
  C  C246  1  0.554500  0.900700  0.095700  1.0  -0.0732
  C  C247  1  0.542200  0.964500  0.113000  1.0  -0.0686
  C  C248  1  0.580200  0.009600  0.081600  1.0  -0.1467
  C  C249  1  0.603600  0.362500  0.511100  1.0  0.694
  C  C250  1  0.642000  0.380100  0.438600  1.0  0.0309
  C  C251  1  0.680300  0.343900  0.386100  1.0  0.0427
  C  C252  1  0.692000  0.274600  0.383500  1.0  0.7056
  C  C253  1  0.682600  0.442500  0.344300  1.0  0.3905
  C  C254  1  0.699000  0.499800  0.295900  1.0  -0.0248
  C  C255  1  0.764300  0.515800  0.282600  1.0  -0.0471
  C  C256  1  0.783400  0.569400  0.240000  1.0  -0.1881
  C  C257  1  0.738700  0.611500  0.209900  1.0  -0.026
  C  C258  1  0.673100  0.598300  0.219900  1.0  -0.0173
  C  C259  1  0.652700  0.539800  0.265000  1.0  -0.0802
  C  C260  1  0.627900  0.639000  0.189500  1.0  -0.1754
  C  C261  1  0.650700  0.695500  0.154300  1.0  -0.0718
  C  C262  1  0.714500  0.707800  0.137000  1.0  -0.0663
  C  C263  1  0.759600  0.669800  0.168400  1.0  -0.1464
  C  C264  1  0.103600  0.862500  0.011100  1.0  0.694
  C  C265  1  0.142000  0.880100  0.938600  1.0  0.0309
  C  C266  1  0.180300  0.843900  0.886100  1.0  0.0427
  C  C267  1  0.192000  0.774600  0.883500  1.0  0.7056
  C  C268  1  0.182600  0.942500  0.844300  1.0  0.3905
  C  C269  1  0.199000  0.999800  0.795900  1.0  -0.0248
  C  C270  1  0.264300  0.015800  0.782600  1.0  -0.0471
  C  C271  1  0.283400  0.069400  0.740000  1.0  -0.1881
  C  C272  1  0.238700  0.111500  0.709900  1.0  -0.026
  C  C273  1  0.173100  0.098300  0.719900  1.0  -0.0173
  C  C274  1  0.152700  0.039800  0.765000  1.0  -0.0802
  C  C275  1  0.127900  0.139000  0.689500  1.0  -0.1754
  C  C276  1  0.150700  0.195500  0.654300  1.0  -0.0718
  C  C277  1  0.214500  0.207800  0.637000  1.0  -0.0663
  C  C278  1  0.259600  0.169800  0.668400  1.0  -0.1464
  C  C279  1  0.896400  0.637500  0.011100  1.0  0.6927
  C  C280  1  0.858000  0.619900  0.938600  1.0  0.0316
  C  C281  1  0.819700  0.656100  0.886100  1.0  0.0439
  C  C282  1  0.808000  0.725400  0.883500  1.0  0.7064
  C  C283  1  0.817400  0.557500  0.844300  1.0  0.3904
  C  C284  1  0.801000  0.500200  0.795900  1.0  -0.0249
  C  C285  1  0.735700  0.484200  0.782600  1.0  -0.0461
  C  C286  1  0.716600  0.430600  0.740000  1.0  -0.1883
  C  C287  1  0.761300  0.388500  0.709900  1.0  -0.0261
  C  C288  1  0.826900  0.401700  0.719900  1.0  -0.0179
  C  C289  1  0.847300  0.460200  0.765000  1.0  -0.0791
  C  C290  1  0.872100  0.361000  0.689500  1.0  -0.1736
  C  C291  1  0.849300  0.304500  0.654300  1.0  -0.0726
  C  C292  1  0.785500  0.292200  0.637000  1.0  -0.0685
  C  C293  1  0.740400  0.330200  0.668400  1.0  -0.1458
  C  C294  1  0.396400  0.137500  0.511100  1.0  0.6927
  C  C295  1  0.358000  0.119900  0.438600  1.0  0.0316
  C  C296  1  0.319700  0.156100  0.386100  1.0  0.0439
  C  C297  1  0.308000  0.225400  0.383500  1.0  0.7064
  C  C298  1  0.317400  0.057500  0.344300  1.0  0.3904
  C  C299  1  0.301000  0.000200  0.295900  1.0  -0.0249
  C  C300  1  0.235700  0.984200  0.282600  1.0  -0.0461
  C  C301  1  0.216600  0.930600  0.240000  1.0  -0.1883
  C  C302  1  0.261300  0.888500  0.209900  1.0  -0.0261
  C  C303  1  0.326900  0.901700  0.219900  1.0  -0.0179
  C  C304  1  0.347300  0.960200  0.265000  1.0  -0.0791
  C  C305  1  0.372100  0.861000  0.189500  1.0  -0.1736
  C  C306  1  0.349300  0.804500  0.154300  1.0  -0.0726
  C  C307  1  0.285500  0.792200  0.137000  1.0  -0.0685
  C  C308  1  0.240400  0.830200  0.168400  1.0  -0.1458
  C  C309  1  0.887500  0.353600  0.261100  1.0  0.6965
  C  C310  1  0.869900  0.392000  0.188600  1.0  0.0318
  C  C311  1  0.906100  0.430300  0.136100  1.0  0.0428
  C  C312  1  0.975400  0.442000  0.133500  1.0  0.7053
  C  C313  1  0.807500  0.432600  0.094300  1.0  0.39
  C  C314  1  0.750200  0.449000  0.045900  1.0  -0.0245
  C  C315  1  0.734200  0.514300  0.032600  1.0  -0.0472
  C  C316  1  0.680600  0.533400  0.990000  1.0  -0.1871
  C  C317  1  0.638500  0.488700  0.959900  1.0  -0.026
  C  C318  1  0.651700  0.423100  0.969900  1.0  -0.0161
  C  C319  1  0.710200  0.402700  0.015000  1.0  -0.0801
  C  C320  1  0.611000  0.377900  0.939500  1.0  -0.1753
  C  C321  1  0.554500  0.400700  0.904300  1.0  -0.0735
  C  C322  1  0.542200  0.464500  0.887000  1.0  -0.0685
  C  C323  1  0.580200  0.509600  0.918400  1.0  -0.1465
  C  C324  1  0.387500  0.853600  0.761100  1.0  0.6965
  C  C325  1  0.369900  0.892000  0.688600  1.0  0.0318
  C  C326  1  0.406100  0.930300  0.636100  1.0  0.0428
  C  C327  1  0.475400  0.942000  0.633500  1.0  0.7053
  C  C328  1  0.307500  0.932600  0.594300  1.0  0.39
  C  C329  1  0.250200  0.949000  0.545900  1.0  -0.0245
  C  C330  1  0.234200  0.014300  0.532600  1.0  -0.0472
  C  C331  1  0.180600  0.033400  0.490000  1.0  -0.1871
  C  C332  1  0.138500  0.988700  0.459900  1.0  -0.026
  C  C333  1  0.151700  0.923100  0.469900  1.0  -0.0161
  C  C334  1  0.210200  0.902700  0.515000  1.0  -0.0801
  C  C335  1  0.111000  0.877900  0.439500  1.0  -0.1753
  C  C336  1  0.054500  0.900700  0.404300  1.0  -0.0735
  C  C337  1  0.042200  0.964500  0.387000  1.0  -0.0685
  C  C338  1  0.080200  0.009600  0.418400  1.0  -0.1465
  C  C339  1  0.612500  0.646400  0.761100  1.0  0.6964
  C  C340  1  0.630100  0.608000  0.688600  1.0  0.0317
  C  C341  1  0.593900  0.569700  0.636100  1.0  0.0439
  C  C342  1  0.524600  0.558000  0.633500  1.0  0.7058
  C  C343  1  0.692500  0.567400  0.594300  1.0  0.3899
  C  C344  1  0.749800  0.551000  0.545900  1.0  -0.0238
  C  C345  1  0.765800  0.485700  0.532600  1.0  -0.047
  C  C346  1  0.819400  0.466600  0.490000  1.0  -0.1856
  C  C347  1  0.861500  0.511300  0.459900  1.0  -0.0262
  C  C348  1  0.848300  0.576900  0.469900  1.0  -0.0157
  C  C349  1  0.789800  0.597300  0.515000  1.0  -0.0792
  C  C350  1  0.889000  0.622100  0.439500  1.0  -0.1741
  C  C351  1  0.945500  0.599300  0.404300  1.0  -0.0708
  C  C352  1  0.957800  0.535500  0.387000  1.0  -0.0666
  C  C353  1  0.919800  0.490400  0.418400  1.0  -0.1477
  C  C354  1  0.112500  0.146400  0.261100  1.0  0.6964
  C  C355  1  0.130100  0.108000  0.188600  1.0  0.0317
  C  C356  1  0.093900  0.069700  0.136100  1.0  0.0439
  C  C357  1  0.024600  0.058000  0.133500  1.0  0.7058
  C  C358  1  0.192500  0.067400  0.094300  1.0  0.3899
  C  C359  1  0.249800  0.051000  0.045900  1.0  -0.0238
  C  C360  1  0.265800  0.985700  0.032600  1.0  -0.047
  C  C361  1  0.319400  0.966600  0.990000  1.0  -0.1856
  C  C362  1  0.361500  0.011300  0.959900  1.0  -0.0262
  C  C363  1  0.348300  0.076900  0.969900  1.0  -0.0157
  C  C364  1  0.289800  0.097300  0.015000  1.0  -0.0792
  C  C365  1  0.389000  0.122100  0.939500  1.0  -0.1741
  C  C366  1  0.445500  0.099300  0.904300  1.0  -0.0708
  C  C367  1  0.457800  0.035500  0.887000  1.0  -0.0666
  C  C368  1  0.419800  0.990400  0.918400  1.0  -0.1477
  N  N369  1  0.357000  0.558200  0.588800  1.0  -0.4044
  N  N370  1  0.294200  0.616300  0.672900  1.0  -0.4217
  N  N371  1  0.857000  0.058200  0.088800  1.0  -0.4044
  N  N372  1  0.794200  0.116300  0.172900  1.0  -0.4217
  N  N373  1  0.143000  0.441800  0.088800  1.0  -0.4046
  N  N374  1  0.205800  0.383700  0.172900  1.0  -0.4204
  N  N375  1  0.643000  0.941800  0.588800  1.0  -0.4046
  N  N376  1  0.705800  0.883700  0.672900  1.0  -0.4204
  N  N377  1  0.191800  0.607000  0.838800  1.0  -0.4048
  N  N378  1  0.133700  0.544200  0.922900  1.0  -0.4195
  N  N379  1  0.691800  0.107000  0.338800  1.0  -0.4048
  N  N380  1  0.633700  0.044200  0.422900  1.0  -0.4195
  N  N381  1  0.308200  0.393000  0.338800  1.0  -0.4056
  N  N382  1  0.366300  0.455800  0.422900  1.0  -0.4202
  N  N383  1  0.808200  0.893000  0.838800  1.0  -0.4056
  N  N384  1  0.866300  0.955800  0.922900  1.0  -0.4202
  N  N385  1  0.643000  0.441800  0.411200  1.0  -0.405
  N  N386  1  0.705800  0.383700  0.327100  1.0  -0.4225
  N  N387  1  0.143000  0.941800  0.911200  1.0  -0.405
  N  N388  1  0.205800  0.883700  0.827100  1.0  -0.4225
  N  N389  1  0.857000  0.558200  0.911200  1.0  -0.4045
  N  N390  1  0.794200  0.616300  0.827100  1.0  -0.4218
  N  N391  1  0.357000  0.058200  0.411200  1.0  -0.4045
  N  N392  1  0.294200  0.116300  0.327100  1.0  -0.4218
  N  N393  1  0.808200  0.393000  0.161200  1.0  -0.4067
  N  N394  1  0.866300  0.455800  0.077100  1.0  -0.4209
  N  N395  1  0.308200  0.893000  0.661200  1.0  -0.4067
  N  N396  1  0.366300  0.955800  0.577100  1.0  -0.4209
  N  N397  1  0.691800  0.607000  0.661200  1.0  -0.4052
  N  N398  1  0.633700  0.544200  0.577100  1.0  -0.4195
  N  N399  1  0.191800  0.107000  0.161200  1.0  -0.4052
  N  N400  1  0.133700  0.044200  0.077100  1.0  -0.4195
  O  O401  1  0.425800  0.593900  0.451200  1.0  -0.5476
  O  O402  1  0.397300  0.697000  0.464000  1.0  -0.4343
  O  O403  1  0.330200  0.761100  0.560100  1.0  -0.4689
  O  O404  1  0.274200  0.745200  0.676800  1.0  -0.6226
  O  O405  1  0.925800  0.093900  0.951200  1.0  -0.5476
  O  O406  1  0.897300  0.197000  0.964000  1.0  -0.4343
  O  O407  1  0.830200  0.261100  0.060100  1.0  -0.4689
  O  O408  1  0.774200  0.245200  0.176800  1.0  -0.6226
  O  O409  1  0.074200  0.406100  0.951200  1.0  -0.5466
  O  O410  1  0.102700  0.303000  0.964000  1.0  -0.4323
  O  O411  1  0.169800  0.238900  0.060100  1.0  -0.4709
  O  O412  1  0.225800  0.254800  0.176800  1.0  -0.6221
  O  O413  1  0.574200  0.906100  0.451200  1.0  -0.5466
  O  O414  1  0.602700  0.803000  0.464000  1.0  -0.4323
  O  O415  1  0.669800  0.738900  0.560100  1.0  -0.4709
  O  O416  1  0.725800  0.754800  0.676800  1.0  -0.6221
  O  O417  1  0.156100  0.675800  0.701200  1.0  -0.5481
  O  O418  1  0.053000  0.647300  0.714000  1.0  -0.4369
  O  O419  1  0.988900  0.580200  0.810100  1.0  -0.471
  O  O420  1  0.004800  0.524200  0.926800  1.0  -0.6226
  O  O421  1  0.656100  0.175800  0.201200  1.0  -0.5481
  O  O422  1  0.553000  0.147300  0.214000  1.0  -0.4369
  O  O423  1  0.488900  0.080200  0.310100  1.0  -0.471
  O  O424  1  0.504800  0.024200  0.426800  1.0  -0.6226
  O  O425  1  0.343900  0.324200  0.201200  1.0  -0.5475
  O  O426  1  0.447000  0.352700  0.214000  1.0  -0.4353
  O  O427  1  0.511100  0.419800  0.310100  1.0  -0.4705
  O  O428  1  0.495200  0.475800  0.426800  1.0  -0.6228
  O  O429  1  0.843900  0.824200  0.701200  1.0  -0.5475
  O  O430  1  0.947000  0.852700  0.714000  1.0  -0.4353
  O  O431  1  0.011100  0.919800  0.810100  1.0  -0.4705
  O  O432  1  0.995200  0.975800  0.926800  1.0  -0.6228
  O  O433  1  0.574200  0.406100  0.548800  1.0  -0.5457
  O  O434  1  0.602700  0.303000  0.536000  1.0  -0.4322
  O  O435  1  0.669800  0.238900  0.439900  1.0  -0.469
  O  O436  1  0.725800  0.254800  0.323200  1.0  -0.6223
  O  O437  1  0.074200  0.906100  0.048800  1.0  -0.5457
  O  O438  1  0.102700  0.803000  0.036000  1.0  -0.4322
  O  O439  1  0.169800  0.738900  0.939900  1.0  -0.469
  O  O440  1  0.225800  0.754800  0.823200  1.0  -0.6223
  O  O441  1  0.925800  0.593900  0.048800  1.0  -0.5492
  O  O442  1  0.897300  0.697000  0.036000  1.0  -0.4356
  O  O443  1  0.830200  0.761100  0.939900  1.0  -0.4684
  O  O444  1  0.774200  0.745200  0.823200  1.0  -0.6225
  O  O445  1  0.425800  0.093900  0.548800  1.0  -0.5492
  O  O446  1  0.397300  0.197000  0.536000  1.0  -0.4356
  O  O447  1  0.330200  0.261100  0.439900  1.0  -0.4684
  O  O448  1  0.274200  0.245200  0.323200  1.0  -0.6225
  O  O449  1  0.843900  0.324200  0.298800  1.0  -0.5469
  O  O450  1  0.947000  0.352700  0.286000  1.0  -0.4362
  O  O451  1  0.011100  0.419800  0.189900  1.0  -0.4693
  O  O452  1  0.995200  0.475800  0.073200  1.0  -0.6231
  O  O453  1  0.343900  0.824200  0.798800  1.0  -0.5469
  O  O454  1  0.447000  0.852700  0.786000  1.0  -0.4362
  O  O455  1  0.511100  0.919800  0.689900  1.0  -0.4693
  O  O456  1  0.495200  0.975800  0.573200  1.0  -0.6231
  O  O457  1  0.656100  0.675800  0.798800  1.0  -0.5475
  O  O458  1  0.553000  0.647300  0.786000  1.0  -0.437
  O  O459  1  0.488900  0.580200  0.689900  1.0  -0.4694
  O  O460  1  0.504800  0.524200  0.573200  1.0  -0.6228
  O  O461  1  0.156100  0.175800  0.298800  1.0  -0.5475
  O  O462  1  0.053000  0.147300  0.286000  1.0  -0.437
  O  O463  1  0.988900  0.080200  0.189900  1.0  -0.4694
  O  O464  1  0.004800  0.024200  0.073200  1.0  -0.6228
