# generated using pymatgen
data_Co2H7C18N3O8
_symmetry_space_group_name_H-M   'P 1'
_cell_length_a   10.21300000
_cell_length_b   17.60700000
_cell_length_c   28.12300000
_cell_angle_alpha   90.00000000
_cell_angle_beta   98.60000000
_cell_angle_gamma   90.00000000
_symmetry_Int_Tables_number   1
_chemical_formula_structural   Co2H7C18N3O8
_chemical_formula_sum   'Co8 H28 C72 N12 O32'
_cell_volume   5000.22609530
_cell_formula_units_Z   4
loop_
 _symmetry_equiv_pos_site_id
 _symmetry_equiv_pos_as_xyz
  1  'x, y, z'
loop_
 _atom_site_type_symbol
 _atom_site_label
 _atom_site_symmetry_multiplicity
 _atom_site_fract_x
 _atom_site_fract_y
 _atom_site_fract_z
 _atom_site_occupancy
 _atom_site_charge
  Co  Co1  1  0.209430  0.623840  0.169440  1.0  1.1019
  Co  Co2  1  0.008260  0.549410  0.255640  1.0  0.8986
  Co  Co3  1  0.290570  0.123840  0.330560  1.0  1.1036
  Co  Co4  1  0.491740  0.049410  0.244360  1.0  0.8988
  Co  Co5  1  0.790570  0.376160  0.830560  1.0  1.104
  Co  Co6  1  0.991740  0.450590  0.744360  1.0  0.898
  Co  Co7  1  0.709430  0.876160  0.669440  1.0  1.1022
  Co  Co8  1  0.508260  0.950590  0.755640  1.0  0.8997
  H  H9  1  0.208900  0.328500  0.243100  1.0  0.1033
  H  H10  1  0.349800  0.193100  0.146800  1.0  0.116
  H  H11  1  0.245800  0.409100  0.112800  1.0  0.0983
  H  H12  1  0.209200  0.350600  0.028600  1.0  0.1158
  H  H13  1  0.298700  0.378400  0.821200  1.0  0.1036
  H  H14  1  0.536700  0.318200  0.942700  1.0  0.1105
  H  H15  1  0.141200  0.324100  0.938600  1.0  0.1109
  H  H16  1  0.291100  0.828500  0.256900  1.0  0.1036
  H  H17  1  0.150200  0.693100  0.353200  1.0  0.1163
  H  H18  1  0.254200  0.909100  0.387200  1.0  0.0983
  H  H19  1  0.290800  0.850600  0.471400  1.0  0.1157
  H  H20  1  0.201300  0.878400  0.678800  1.0  0.1033
  H  H21  1  0.963300  0.818200  0.557300  1.0  0.1109
  H  H22  1  0.358800  0.824100  0.561400  1.0  0.1099
  H  H23  1  0.791100  0.671500  0.756900  1.0  0.1036
  H  H24  1  0.650200  0.806900  0.853200  1.0  0.1165
  H  H25  1  0.754200  0.590900  0.887200  1.0  0.0985
  H  H26  1  0.790800  0.649400  0.971400  1.0  0.1153
  H  H27  1  0.701300  0.621600  0.178800  1.0  0.1033
  H  H28  1  0.463300  0.681800  0.057300  1.0  0.1109
  H  H29  1  0.858800  0.675900  0.061400  1.0  0.1106
  H  H30  1  0.708900  0.171500  0.743100  1.0  0.1036
  H  H31  1  0.849800  0.306900  0.646800  1.0  0.1155
  H  H32  1  0.745800  0.090900  0.612800  1.0  0.0985
  H  H33  1  0.709200  0.149400  0.528600  1.0  0.1155
  H  H34  1  0.798700  0.121600  0.321200  1.0  0.1036
  H  H35  1  0.036700  0.181800  0.442700  1.0  0.1103
  H  H36  1  0.641200  0.175900  0.438600  1.0  0.1099
  C  C37  1  0.179800  0.459300  0.194120  1.0  0.7317
  C  C38  1  0.222600  0.381100  0.180450  1.0  -0.1637
  C  C39  1  0.233900  0.321500  0.212910  1.0  0.0178
  C  C40  1  0.282300  0.251100  0.200960  1.0  -0.1644
  C  C41  1  0.317300  0.239800  0.155130  1.0  0.0035
  C  C42  1  0.303000  0.298900  0.122440  1.0  0.0866
  C  C43  1  0.255400  0.369700  0.135050  1.0  -0.0957
  C  C44  1  0.284200  0.320100  0.033330  1.0  0.0101
  C  C45  1  0.341300  0.317800  0.949010  1.0  0.052
  C  C46  1  0.556600  0.360900  0.853170  1.0  0.6262
  C  C47  1  0.436900  0.349000  0.877590  1.0  -0.1723
  C  C48  1  0.309800  0.362700  0.853090  1.0  0.0296
  C  C49  1  0.452400  0.326900  0.925920  1.0  -0.0316
  C  C50  1  0.301800  0.186400  0.236870  1.0  0.7032
  C  C51  1  0.063900  0.369000  0.848600  1.0  0.702
  C  C52  1  0.200200  0.353100  0.876130  1.0  -0.1524
  C  C53  1  0.215400  0.330700  0.923520  1.0  -0.0945
  C  C54  1  0.356300  0.297800  0.999290  1.0  0.1383
  C  C55  1  0.320200  0.959300  0.305880  1.0  0.7316
  C  C56  1  0.277400  0.881100  0.319550  1.0  -0.1637
  C  C57  1  0.266100  0.821500  0.287090  1.0  0.0183
  C  C58  1  0.217700  0.751100  0.299040  1.0  -0.1647
  C  C59  1  0.182700  0.739800  0.344870  1.0  0.0036
  C  C60  1  0.197000  0.798900  0.377560  1.0  0.087
  C  C61  1  0.244600  0.869700  0.364950  1.0  -0.0952
  C  C62  1  0.215800  0.820100  0.466670  1.0  0.0104
  C  C63  1  0.158700  0.817800  0.550990  1.0  0.0521
  C  C64  1  0.943400  0.860900  0.646830  1.0  0.6265
  C  C65  1  0.063100  0.849000  0.622410  1.0  -0.173
  C  C66  1  0.190200  0.862700  0.646910  1.0  0.0293
  C  C67  1  0.047600  0.826900  0.574080  1.0  -0.0334
  C  C68  1  0.198200  0.686400  0.263130  1.0  0.7028
  C  C69  1  0.436100  0.869000  0.651400  1.0  0.7027
  C  C70  1  0.299800  0.853100  0.623870  1.0  -0.152
  C  C71  1  0.284600  0.830700  0.576480  1.0  -0.0948
  C  C72  1  0.143700  0.797800  0.500710  1.0  0.1376
  C  C73  1  0.820200  0.540700  0.805880  1.0  0.7313
  C  C74  1  0.777400  0.618900  0.819550  1.0  -0.1635
  C  C75  1  0.766100  0.678500  0.787090  1.0  0.0187
  C  C76  1  0.717700  0.748900  0.799040  1.0  -0.1642
  C  C77  1  0.682700  0.760200  0.844870  1.0  0.0032
  C  C78  1  0.697000  0.701100  0.877560  1.0  0.0869
  C  C79  1  0.744600  0.630300  0.864950  1.0  -0.0939
  C  C80  1  0.715800  0.679900  0.966670  1.0  0.011
  C  C81  1  0.658700  0.682200  0.050990  1.0  0.053
  C  C82  1  0.443400  0.639100  0.146830  1.0  0.6268
  C  C83  1  0.563100  0.651000  0.122410  1.0  -0.173
  C  C84  1  0.690200  0.637300  0.146910  1.0  0.0298
  C  C85  1  0.547600  0.673100  0.074080  1.0  -0.0336
  C  C86  1  0.698200  0.813600  0.763130  1.0  0.7027
  C  C87  1  0.936100  0.631000  0.151400  1.0  0.7026
  C  C88  1  0.799800  0.646900  0.123870  1.0  -0.1519
  C  C89  1  0.784600  0.669300  0.076480  1.0  -0.095
  C  C90  1  0.643700  0.702200  0.000710  1.0  0.1376
  C  C91  1  0.679800  0.040700  0.694120  1.0  0.7314
  C  C92  1  0.722600  0.118900  0.680450  1.0  -0.1636
  C  C93  1  0.733900  0.178500  0.712910  1.0  0.0183
  C  C94  1  0.782300  0.248900  0.700960  1.0  -0.1643
  C  C95  1  0.817300  0.260200  0.655130  1.0  0.003
  C  C96  1  0.803000  0.201100  0.622440  1.0  0.0866
  C  C97  1  0.755400  0.130300  0.635050  1.0  -0.0945
  C  C98  1  0.784200  0.179900  0.533330  1.0  0.0106
  C  C99  1  0.841300  0.182200  0.449010  1.0  0.0525
  C  C100  1  0.056600  0.139100  0.353170  1.0  0.6265
  C  C101  1  0.936900  0.151000  0.377590  1.0  -0.1723
  C  C102  1  0.809800  0.137300  0.353090  1.0  0.0299
  C  C103  1  0.952400  0.173100  0.425920  1.0  -0.0318
  C  C104  1  0.801800  0.313600  0.736870  1.0  0.7032
  C  C105  1  0.563900  0.131000  0.348600  1.0  0.7021
  C  C106  1  0.700200  0.146900  0.376130  1.0  -0.1525
  C  C107  1  0.715400  0.169300  0.423520  1.0  -0.0952
  C  C108  1  0.856300  0.202200  0.499290  1.0  0.1382
  N  N109  1  0.340200  0.290200  0.074740  1.0  0.1311
  N  N110  1  0.448400  0.251500  0.067100  1.0  -0.172
  N  N111  1  0.458300  0.257200  0.021300  1.0  -0.1273
  N  N112  1  0.159800  0.790200  0.425260  1.0  0.1303
  N  N113  1  0.051600  0.751500  0.432900  1.0  -0.1697
  N  N114  1  0.041700  0.757200  0.478700  1.0  -0.1273
  N  N115  1  0.659800  0.709800  0.925260  1.0  0.1302
  N  N116  1  0.551600  0.748500  0.932900  1.0  -0.1681
  N  N117  1  0.541700  0.742800  0.978700  1.0  -0.1224
  N  N118  1  0.840200  0.209800  0.574740  1.0  0.1308
  N  N119  1  0.948400  0.248500  0.567100  1.0  -0.173
  N  N120  1  0.958300  0.242800  0.521300  1.0  -0.1317
  O  O121  1  0.669200  0.345600  0.877250  1.0  -0.5807
  O  O122  1  0.542600  0.384400  0.811300  1.0  -0.5569
  O  O123  1  0.211200  0.512610  0.168130  1.0  -0.5943
  O  O124  1  0.119200  0.465100  0.229430  1.0  -0.6428
  O  O125  1  0.276500  0.199900  0.278460  1.0  -0.5776
  O  O126  1  0.341100  0.124000  0.222940  1.0  -0.6041
  O  O127  1  0.054600  0.393900  0.807260  1.0  -0.6886
  O  O128  1  0.966100  0.353100  0.869430  1.0  -0.5764
  O  O129  1  0.830800  0.845600  0.622750  1.0  -0.5825
  O  O130  1  0.957400  0.884400  0.688700  1.0  -0.5563
  O  O131  1  0.288800  0.012610  0.331870  1.0  -0.5956
  O  O132  1  0.380800  0.965100  0.270570  1.0  -0.6436
  O  O133  1  0.223500  0.699900  0.221540  1.0  -0.576
  O  O134  1  0.158900  0.624000  0.277060  1.0  -0.605
  O  O135  1  0.445400  0.893900  0.692740  1.0  -0.6886
  O  O136  1  0.533900  0.853100  0.630570  1.0  -0.5753
  O  O137  1  0.330800  0.654400  0.122750  1.0  -0.581
  O  O138  1  0.457400  0.615600  0.188700  1.0  -0.5557
  O  O139  1  0.788800  0.487390  0.831870  1.0  -0.5926
  O  O140  1  0.880800  0.534900  0.770570  1.0  -0.6453
  O  O141  1  0.723500  0.800100  0.721540  1.0  -0.5746
  O  O142  1  0.658900  0.876000  0.777060  1.0  -0.6042
  O  O143  1  0.945400  0.606100  0.192740  1.0  -0.6873
  O  O144  1  0.033900  0.646900  0.130570  1.0  -0.5749
  O  O145  1  0.169200  0.154400  0.377250  1.0  -0.58
  O  O146  1  0.042600  0.115600  0.311300  1.0  -0.5568
  O  O147  1  0.711200  0.987390  0.668130  1.0  -0.5917
  O  O148  1  0.619200  0.034900  0.729430  1.0  -0.6438
  O  O149  1  0.776500  0.300100  0.778460  1.0  -0.5763
  O  O150  1  0.841100  0.376000  0.722940  1.0  -0.6052
  O  O151  1  0.554600  0.106100  0.307260  1.0  -0.6883
  O  O152  1  0.466100  0.146900  0.369430  1.0  -0.5758
