# generated using pymatgen
data_Mn2H7C18N3O8
_symmetry_space_group_name_H-M   'P 1'
_cell_length_a   19.19990000
_cell_length_b   19.19990000
_cell_length_c   25.81500000
_cell_angle_alpha   90.00000000
_cell_angle_beta   90.00000000
_cell_angle_gamma   90.00000000
_symmetry_Int_Tables_number   1
_chemical_formula_structural   Mn2H7C18N3O8
_chemical_formula_sum   'Mn16 H56 C144 N24 O64'
_cell_volume   9516.34247066
_cell_formula_units_Z   8
loop_
 _symmetry_equiv_pos_site_id
 _symmetry_equiv_pos_as_xyz
  1  'x, y, z'
loop_
 _atom_site_type_symbol
 _atom_site_label
 _atom_site_symmetry_multiplicity
 _atom_site_fract_x
 _atom_site_fract_y
 _atom_site_fract_z
 _atom_site_occupancy
 _atom_site_charge
  Mn  Mn1  1  0.273240  0.787190  0.983640  1.0  1.0947
  Mn  Mn2  1  0.387540  0.809310  0.090780  1.0  1.0828
  Mn  Mn3  1  0.726760  0.212810  0.983640  1.0  1.0944
  Mn  Mn4  1  0.612460  0.190690  0.090780  1.0  1.0801
  Mn  Mn5  1  0.787190  0.726760  0.016360  1.0  1.0946
  Mn  Mn6  1  0.809310  0.612460  0.909220  1.0  1.0869
  Mn  Mn7  1  0.212810  0.273240  0.016360  1.0  1.0941
  Mn  Mn8  1  0.190690  0.387540  0.909220  1.0  1.0856
  Mn  Mn9  1  0.226760  0.287190  0.516360  1.0  1.0941
  Mn  Mn10  1  0.112460  0.309310  0.409220  1.0  1.0826
  Mn  Mn11  1  0.773240  0.712810  0.516360  1.0  1.0949
  Mn  Mn12  1  0.887540  0.690690  0.409220  1.0  1.0841
  Mn  Mn13  1  0.712810  0.226760  0.483640  1.0  1.094
  Mn  Mn14  1  0.690690  0.112460  0.590780  1.0  1.0804
  Mn  Mn15  1  0.287190  0.773240  0.483640  1.0  1.0944
  Mn  Mn16  1  0.309310  0.887540  0.590780  1.0  1.0855
  H  H17  1  0.245400  0.032600  0.016700  1.0  0.116
  H  H18  1  0.213400  0.112500  0.157600  1.0  0.1202
  H  H19  1  0.251500  0.908400  0.140100  1.0  0.1204
  H  H20  1  0.240800  0.087600  0.252100  1.0  0.1231
  H  H21  1  0.185300  0.116500  0.345500  1.0  0.1188
  H  H22  1  0.264100  0.926200  0.371500  1.0  0.1222
  H  H23  1  0.246200  0.063000  0.488700  1.0  0.1072
  H  H24  1  0.754600  0.967400  0.016700  1.0  0.1162
  H  H25  1  0.786600  0.887500  0.157600  1.0  0.1196
  H  H26  1  0.748500  0.091600  0.140100  1.0  0.1208
  H  H27  1  0.759200  0.912400  0.252100  1.0  0.1235
  H  H28  1  0.814700  0.883500  0.345500  1.0  0.1183
  H  H29  1  0.735900  0.073800  0.371500  1.0  0.1227
  H  H30  1  0.753800  0.937000  0.488700  1.0  0.1072
  H  H31  1  0.032600  0.754600  0.983300  1.0  0.1172
  H  H32  1  0.112500  0.786600  0.842400  1.0  0.1203
  H  H33  1  0.908400  0.748500  0.859900  1.0  0.1206
  H  H34  1  0.087600  0.759200  0.747900  1.0  0.1219
  H  H35  1  0.116500  0.814700  0.654500  1.0  0.1179
  H  H36  1  0.926200  0.735900  0.628500  1.0  0.1225
  H  H37  1  0.063000  0.753800  0.511300  1.0  0.108
  H  H38  1  0.967400  0.245400  0.983300  1.0  0.1165
  H  H39  1  0.887500  0.213400  0.842400  1.0  0.1206
  H  H40  1  0.091600  0.251500  0.859900  1.0  0.1203
  H  H41  1  0.912400  0.240800  0.747900  1.0  0.1229
  H  H42  1  0.883500  0.185300  0.654500  1.0  0.1187
  H  H43  1  0.073800  0.264100  0.628500  1.0  0.1223
  H  H44  1  0.937000  0.246200  0.511300  1.0  0.108
  H  H45  1  0.254600  0.532600  0.483300  1.0  0.1165
  H  H46  1  0.286600  0.612500  0.342400  1.0  0.1197
  H  H47  1  0.248500  0.408400  0.359900  1.0  0.1201
  H  H48  1  0.259200  0.587600  0.247900  1.0  0.1233
  H  H49  1  0.314700  0.616500  0.154500  1.0  0.1181
  H  H50  1  0.235900  0.426200  0.128500  1.0  0.1227
  H  H51  1  0.253800  0.563000  0.011300  1.0  0.1073
  H  H52  1  0.745400  0.467400  0.483300  1.0  0.1174
  H  H53  1  0.713400  0.387500  0.342400  1.0  0.1198
  H  H54  1  0.751500  0.591600  0.359900  1.0  0.1201
  H  H55  1  0.740800  0.412400  0.247900  1.0  0.1233
  H  H56  1  0.685300  0.383500  0.154500  1.0  0.1184
  H  H57  1  0.764100  0.573800  0.128500  1.0  0.1231
  H  H58  1  0.746200  0.437000  0.011300  1.0  0.1074
  H  H59  1  0.467400  0.254600  0.516700  1.0  0.116
  H  H60  1  0.387500  0.286600  0.657600  1.0  0.1208
  H  H61  1  0.591600  0.248500  0.640100  1.0  0.1208
  H  H62  1  0.412400  0.259200  0.752100  1.0  0.1235
  H  H63  1  0.383500  0.314700  0.845500  1.0  0.1188
  H  H64  1  0.573800  0.235900  0.871500  1.0  0.1216
  H  H65  1  0.437000  0.253800  0.988700  1.0  0.1079
  H  H66  1  0.532600  0.745400  0.516700  1.0  0.1161
  H  H67  1  0.612500  0.713400  0.657600  1.0  0.1204
  H  H68  1  0.408400  0.751500  0.640100  1.0  0.121
  H  H69  1  0.587600  0.740800  0.752100  1.0  0.1228
  H  H70  1  0.616500  0.685300  0.845500  1.0  0.1182
  H  H71  1  0.426200  0.764100  0.871500  1.0  0.1219
  H  H72  1  0.563000  0.746200  0.988700  1.0  0.1077
  C  C73  1  0.264900  0.900500  0.038800  1.0  0.658
  C  C74  1  0.249000  0.962000  0.073800  1.0  -0.1311
  C  C75  1  0.241800  0.026800  0.052300  1.0  -0.0098
  C  C76  1  0.229300  0.083500  0.083800  1.0  -0.1623
  C  C77  1  0.224000  0.154000  0.059000  1.0  0.6308
  C  C78  1  0.222400  0.074500  0.136200  1.0  -0.1141
  C  C79  1  0.229000  0.008500  0.157300  1.0  -0.0324
  C  C80  1  0.244400  0.952300  0.125900  1.0  -0.0796
  C  C81  1  0.219700  0.997500  0.212400  1.0  0.0355
  C  C82  1  0.229600  0.040500  0.253400  1.0  0.0132
  C  C83  1  0.190900  0.170900  0.439100  1.0  0.739
  C  C84  1  0.204700  0.084200  0.368200  1.0  -0.1067
  C  C85  1  0.213000  0.100600  0.420800  1.0  -0.1611
  C  C86  1  0.225500  0.020400  0.350600  1.0  0.1697
  C  C87  1  0.251300  0.969800  0.384100  1.0  -0.0615
  C  C88  1  0.257900  0.985100  0.436500  1.0  -0.176
  C  C89  1  0.239900  0.051700  0.454000  1.0  0.0325
  C  C90  1  0.284500  0.927900  0.472300  1.0  0.7503
  C  C91  1  0.735100  0.099500  0.038800  1.0  0.6584
  C  C92  1  0.751000  0.038000  0.073800  1.0  -0.131
  C  C93  1  0.758200  0.973200  0.052300  1.0  -0.0095
  C  C94  1  0.770700  0.916500  0.083800  1.0  -0.1629
  C  C95  1  0.776000  0.846000  0.059000  1.0  0.6324
  C  C96  1  0.777600  0.925500  0.136200  1.0  -0.1122
  C  C97  1  0.771000  0.991500  0.157300  1.0  -0.0324
  C  C98  1  0.755600  0.047700  0.125900  1.0  -0.08
  C  C99  1  0.780300  0.002500  0.212400  1.0  0.0351
  C  C100  1  0.770400  0.959500  0.253400  1.0  0.0105
  C  C101  1  0.809100  0.829100  0.439100  1.0  0.7397
  C  C102  1  0.795300  0.915800  0.368200  1.0  -0.1065
  C  C103  1  0.787000  0.899400  0.420800  1.0  -0.162
  C  C104  1  0.774500  0.979600  0.350600  1.0  0.1698
  C  C105  1  0.748700  0.030200  0.384100  1.0  -0.0622
  C  C106  1  0.742100  0.014900  0.436500  1.0  -0.1761
  C  C107  1  0.760100  0.948300  0.454000  1.0  0.0322
  C  C108  1  0.715500  0.072100  0.472300  1.0  0.7498
  C  C109  1  0.900500  0.735100  0.961200  1.0  0.6574
  C  C110  1  0.962000  0.751000  0.926200  1.0  -0.1314
  C  C111  1  0.026800  0.758200  0.947700  1.0  -0.0104
  C  C112  1  0.083500  0.770700  0.916200  1.0  -0.1637
  C  C113  1  0.154000  0.776000  0.941000  1.0  0.6282
  C  C114  1  0.074500  0.777600  0.863800  1.0  -0.112
  C  C115  1  0.008500  0.771000  0.842700  1.0  -0.0322
  C  C116  1  0.952300  0.755600  0.874100  1.0  -0.0831
  C  C117  1  0.997500  0.780300  0.787600  1.0  0.0347
  C  C118  1  0.040500  0.770400  0.746600  1.0  0.0158
  C  C119  1  0.170900  0.809100  0.560900  1.0  0.739
  C  C120  1  0.084200  0.795300  0.631800  1.0  -0.1065
  C  C121  1  0.100600  0.787000  0.579200  1.0  -0.1612
  C  C122  1  0.020400  0.774500  0.649400  1.0  0.169
  C  C123  1  0.969800  0.748700  0.615900  1.0  -0.0643
  C  C124  1  0.985100  0.742100  0.563500  1.0  -0.175
  C  C125  1  0.051700  0.760100  0.546000  1.0  0.0324
  C  C126  1  0.927900  0.715500  0.527700  1.0  0.7482
  C  C127  1  0.099500  0.264900  0.961200  1.0  0.6567
  C  C128  1  0.038000  0.249000  0.926200  1.0  -0.1313
  C  C129  1  0.973200  0.241800  0.947700  1.0  -0.0107
  C  C130  1  0.916500  0.229300  0.916200  1.0  -0.1624
  C  C131  1  0.846000  0.224000  0.941000  1.0  0.628
  C  C132  1  0.925500  0.222400  0.863800  1.0  -0.1142
  C  C133  1  0.991500  0.229000  0.842700  1.0  -0.0323
  C  C134  1  0.047700  0.244400  0.874100  1.0  -0.0823
  C  C135  1  0.002500  0.219700  0.787600  1.0  0.0349
  C  C136  1  0.959500  0.229600  0.746600  1.0  0.0137
  C  C137  1  0.829100  0.190900  0.560900  1.0  0.7396
  C  C138  1  0.915800  0.204700  0.631800  1.0  -0.1069
  C  C139  1  0.899400  0.213000  0.579200  1.0  -0.1609
  C  C140  1  0.979600  0.225500  0.649400  1.0  0.1693
  C  C141  1  0.030200  0.251300  0.615900  1.0  -0.0627
  C  C142  1  0.014900  0.257900  0.563500  1.0  -0.1733
  C  C143  1  0.948300  0.239900  0.546000  1.0  0.0326
  C  C144  1  0.072100  0.284500  0.527700  1.0  0.7485
  C  C145  1  0.235100  0.400500  0.461200  1.0  0.6573
  C  C146  1  0.251000  0.462000  0.426200  1.0  -0.1303
  C  C147  1  0.258200  0.526800  0.447700  1.0  -0.0108
  C  C148  1  0.270700  0.583500  0.416200  1.0  -0.1624
  C  C149  1  0.276000  0.654000  0.441000  1.0  0.6308
  C  C150  1  0.277600  0.574500  0.363800  1.0  -0.1121
  C  C151  1  0.271000  0.508500  0.342700  1.0  -0.032
  C  C152  1  0.255600  0.452300  0.374100  1.0  -0.0793
  C  C153  1  0.280300  0.497500  0.287600  1.0  0.0355
  C  C154  1  0.270400  0.540500  0.246600  1.0  0.0109
  C  C155  1  0.309100  0.670900  0.060900  1.0  0.7388
  C  C156  1  0.295300  0.584200  0.131800  1.0  -0.1067
  C  C157  1  0.287000  0.600600  0.079200  1.0  -0.1613
  C  C158  1  0.274500  0.520400  0.149400  1.0  0.1692
  C  C159  1  0.248700  0.469800  0.115900  1.0  -0.0614
  C  C160  1  0.242100  0.485100  0.063500  1.0  -0.1757
  C  C161  1  0.260100  0.551700  0.046000  1.0  0.0321
  C  C162  1  0.215500  0.427900  0.027700  1.0  0.7494
  C  C163  1  0.764900  0.599500  0.461200  1.0  0.6576
  C  C164  1  0.749000  0.538000  0.426200  1.0  -0.1309
  C  C165  1  0.741800  0.473200  0.447700  1.0  -0.0103
  C  C166  1  0.729300  0.416500  0.416200  1.0  -0.1632
  C  C167  1  0.724000  0.346000  0.441000  1.0  0.6324
  C  C168  1  0.722400  0.425500  0.363800  1.0  -0.1116
  C  C169  1  0.729000  0.491500  0.342700  1.0  -0.032
  C  C170  1  0.744400  0.547700  0.374100  1.0  -0.0797
  C  C171  1  0.719700  0.502500  0.287600  1.0  0.0347
  C  C172  1  0.729600  0.459500  0.246600  1.0  0.0129
  C  C173  1  0.690900  0.329100  0.060900  1.0  0.7391
  C  C174  1  0.704700  0.415800  0.131800  1.0  -0.1071
  C  C175  1  0.713000  0.399400  0.079200  1.0  -0.1619
  C  C176  1  0.725500  0.479600  0.149400  1.0  0.1693
  C  C177  1  0.751300  0.530200  0.115900  1.0  -0.0628
  C  C178  1  0.757900  0.514900  0.063500  1.0  -0.175
  C  C179  1  0.739900  0.448300  0.046000  1.0  0.0315
  C  C180  1  0.784500  0.572100  0.027700  1.0  0.7498
  C  C181  1  0.599500  0.235100  0.538800  1.0  0.6574
  C  C182  1  0.538000  0.251000  0.573800  1.0  -0.1314
  C  C183  1  0.473200  0.258200  0.552300  1.0  -0.0096
  C  C184  1  0.416500  0.270700  0.583800  1.0  -0.1626
  C  C185  1  0.346000  0.276000  0.559000  1.0  0.628
  C  C186  1  0.425500  0.277600  0.636200  1.0  -0.115
  C  C187  1  0.491500  0.271000  0.657300  1.0  -0.0326
  C  C188  1  0.547700  0.255600  0.625900  1.0  -0.0826
  C  C189  1  0.502500  0.280300  0.712400  1.0  0.0352
  C  C190  1  0.459500  0.270400  0.753400  1.0  0.0137
  C  C191  1  0.329100  0.309100  0.939100  1.0  0.7397
  C  C192  1  0.415800  0.295300  0.868200  1.0  -0.1068
  C  C193  1  0.399400  0.287000  0.920800  1.0  -0.1607
  C  C194  1  0.479600  0.274500  0.850600  1.0  0.1699
  C  C195  1  0.530200  0.248700  0.884100  1.0  -0.0622
  C  C196  1  0.514900  0.242100  0.936500  1.0  -0.175
  C  C197  1  0.448300  0.260100  0.954000  1.0  0.0323
  C  C198  1  0.572100  0.215500  0.972300  1.0  0.7498
  C  C199  1  0.400500  0.764900  0.538800  1.0  0.6589
  C  C200  1  0.462000  0.749000  0.573800  1.0  -0.1318
  C  C201  1  0.526800  0.741800  0.552300  1.0  -0.0107
  C  C202  1  0.583500  0.729300  0.583800  1.0  -0.1632
  C  C203  1  0.654000  0.724000  0.559000  1.0  0.6279
  C  C204  1  0.574500  0.722400  0.636200  1.0  -0.1135
  C  C205  1  0.508500  0.729000  0.657300  1.0  -0.0327
  C  C206  1  0.452300  0.744400  0.625900  1.0  -0.0837
  C  C207  1  0.497500  0.719700  0.712400  1.0  0.0352
  C  C208  1  0.540500  0.729600  0.753400  1.0  0.0161
  C  C209  1  0.670900  0.690900  0.939100  1.0  0.7398
  C  C210  1  0.584200  0.704700  0.868200  1.0  -0.1058
  C  C211  1  0.600600  0.713000  0.920800  1.0  -0.1611
  C  C212  1  0.520400  0.725500  0.850600  1.0  0.1694
  C  C213  1  0.469800  0.751300  0.884100  1.0  -0.0655
  C  C214  1  0.485100  0.757900  0.936500  1.0  -0.1749
  C  C215  1  0.551700  0.739900  0.954000  1.0  0.0326
  C  C216  1  0.427900  0.784500  0.972300  1.0  0.7478
  N  N217  1  0.199000  0.936200  0.280700  1.0  -0.1676
  N  N218  1  0.200800  0.933800  0.231500  1.0  -0.1463
  N  N219  1  0.220100  0.002100  0.296100  1.0  0.134
  N  N220  1  0.801000  0.063800  0.280700  1.0  -0.1682
  N  N221  1  0.799200  0.066200  0.231500  1.0  -0.1449
  N  N222  1  0.779900  0.997900  0.296100  1.0  0.1343
  N  N223  1  0.936200  0.801000  0.719300  1.0  -0.17
  N  N224  1  0.933800  0.799200  0.768500  1.0  -0.1469
  N  N225  1  0.002100  0.779900  0.703900  1.0  0.1325
  N  N226  1  0.063800  0.199000  0.719300  1.0  -0.1722
  N  N227  1  0.066200  0.200800  0.768500  1.0  -0.1477
  N  N228  1  0.997900  0.220100  0.703900  1.0  0.1325
  N  N229  1  0.301000  0.436200  0.219300  1.0  -0.1685
  N  N230  1  0.299200  0.433800  0.268500  1.0  -0.1453
  N  N231  1  0.279900  0.502100  0.203900  1.0  0.1339
  N  N232  1  0.699000  0.563800  0.219300  1.0  -0.1705
  N  N233  1  0.700800  0.566200  0.268500  1.0  -0.1448
  N  N234  1  0.720100  0.497900  0.203900  1.0  0.1335
  N  N235  1  0.563800  0.301000  0.780700  1.0  -0.1719
  N  N236  1  0.566200  0.299200  0.731500  1.0  -0.1495
  N  N237  1  0.497900  0.279900  0.796100  1.0  0.1328
  N  N238  1  0.436200  0.699000  0.780700  1.0  -0.1698
  N  N239  1  0.433800  0.700800  0.731500  1.0  -0.1478
  N  N240  1  0.502100  0.720100  0.796100  1.0  0.1332
  O  O241  1  0.156600  0.207600  0.409100  1.0  -0.6426
  O  O242  1  0.295500  0.871300  0.451200  1.0  -0.5949
  O  O243  1  0.209700  0.187900  0.484050  1.0  -0.6118
  O  O244  1  0.257000  0.905700  0.991150  1.0  -0.5784
  O  O245  1  0.291900  0.942400  0.518500  1.0  -0.6683
  O  O246  1  0.220000  0.208300  0.088130  1.0  -0.5667
  O  O247  1  0.285600  0.843300  0.059690  1.0  -0.6422
  O  O248  1  0.223700  0.159000  0.011500  1.0  -0.5033
  O  O249  1  0.843400  0.792400  0.409100  1.0  -0.6428
  O  O250  1  0.704500  0.128700  0.451200  1.0  -0.5968
  O  O251  1  0.790300  0.812100  0.484050  1.0  -0.6129
  O  O252  1  0.743000  0.094300  0.991150  1.0  -0.5774
  O  O253  1  0.708100  0.057600  0.518500  1.0  -0.668
  O  O254  1  0.780000  0.791700  0.088130  1.0  -0.5674
  O  O255  1  0.714400  0.156700  0.059690  1.0  -0.643
  O  O256  1  0.776300  0.841000  0.011500  1.0  -0.5035
  O  O257  1  0.207600  0.843400  0.590900  1.0  -0.6424
  O  O258  1  0.871300  0.704500  0.548800  1.0  -0.5956
  O  O259  1  0.187900  0.790300  0.515950  1.0  -0.6135
  O  O260  1  0.905700  0.743000  0.008850  1.0  -0.5794
  O  O261  1  0.942400  0.708100  0.481500  1.0  -0.6706
  O  O262  1  0.208300  0.780000  0.911870  1.0  -0.5709
  O  O263  1  0.843300  0.714400  0.940310  1.0  -0.6407
  O  O264  1  0.159000  0.776300  0.988500  1.0  -0.5035
  O  O265  1  0.792400  0.156600  0.590900  1.0  -0.6435
  O  O266  1  0.128700  0.295500  0.548800  1.0  -0.5944
  O  O267  1  0.812100  0.209700  0.515950  1.0  -0.6134
  O  O268  1  0.094300  0.257000  0.008850  1.0  -0.58
  O  O269  1  0.057600  0.291900  0.481500  1.0  -0.6701
  O  O270  1  0.791700  0.220000  0.911870  1.0  -0.5682
  O  O271  1  0.156700  0.285600  0.940310  1.0  -0.6415
  O  O272  1  0.841000  0.223700  0.988500  1.0  -0.5031
  O  O273  1  0.343400  0.707600  0.090900  1.0  -0.643
  O  O274  1  0.204500  0.371300  0.048800  1.0  -0.5971
  O  O275  1  0.290300  0.687900  0.015950  1.0  -0.6117
  O  O276  1  0.243000  0.405700  0.508850  1.0  -0.5745
  O  O277  1  0.208100  0.442400  0.981500  1.0  -0.671
  O  O278  1  0.280000  0.708300  0.411870  1.0  -0.571
  O  O279  1  0.214400  0.343300  0.440310  1.0  -0.6427
  O  O280  1  0.276300  0.659000  0.488500  1.0  -0.5001
  O  O281  1  0.656600  0.292400  0.090900  1.0  -0.6436
  O  O282  1  0.795500  0.628700  0.048800  1.0  -0.5959
  O  O283  1  0.709700  0.312100  0.015950  1.0  -0.6108
  O  O284  1  0.757000  0.594300  0.508850  1.0  -0.5755
  O  O285  1  0.791900  0.557600  0.981500  1.0  -0.67
  O  O286  1  0.720000  0.291700  0.411870  1.0  -0.5686
  O  O287  1  0.785600  0.656700  0.440310  1.0  -0.6426
  O  O288  1  0.723700  0.341000  0.488500  1.0  -0.4997
  O  O289  1  0.292400  0.343400  0.909100  1.0  -0.6429
  O  O290  1  0.628700  0.204500  0.951200  1.0  -0.5933
  O  O291  1  0.312100  0.290300  0.984050  1.0  -0.6145
  O  O292  1  0.594300  0.243000  0.491150  1.0  -0.5817
  O  O293  1  0.557600  0.208100  0.018500  1.0  -0.6677
  O  O294  1  0.291700  0.280000  0.588130  1.0  -0.5667
  O  O295  1  0.656700  0.214400  0.559690  1.0  -0.6414
  O  O296  1  0.341000  0.276300  0.511500  1.0  -0.5068
  O  O297  1  0.707600  0.656600  0.909100  1.0  -0.6426
  O  O298  1  0.371300  0.795500  0.951200  1.0  -0.5945
  O  O299  1  0.687900  0.709700  0.984050  1.0  -0.6144
  O  O300  1  0.405700  0.757000  0.491150  1.0  -0.5827
  O  O301  1  0.442400  0.791900  0.018500  1.0  -0.6681
  O  O302  1  0.708300  0.720000  0.588130  1.0  -0.5688
  O  O303  1  0.343300  0.785600  0.559690  1.0  -0.6406
  O  O304  1  0.659000  0.723700  0.511500  1.0  -0.5071
