# generated using pymatgen
data_EuH5C9NO6
_symmetry_space_group_name_H-M   'P 1'
_cell_length_a   15.91310000
_cell_length_b   13.53960000
_cell_length_c   6.64750000
_cell_angle_alpha   90.00000000
_cell_angle_beta   97.66200000
_cell_angle_gamma   90.00000000
_symmetry_Int_Tables_number   1
_chemical_formula_structural   EuH5C9NO6
_chemical_formula_sum   'Eu4 H20 C36 N4 O24'
_cell_volume   1419.46311123
_cell_formula_units_Z   4
loop_
 _symmetry_equiv_pos_site_id
 _symmetry_equiv_pos_as_xyz
  1  'x, y, z'
loop_
 _atom_site_type_symbol
 _atom_site_label
 _atom_site_symmetry_multiplicity
 _atom_site_fract_x
 _atom_site_fract_y
 _atom_site_fract_z
 _atom_site_occupancy
 _atom_site_charge
  Eu  Eu1  1  0.250870  0.060300  0.468740  1.0  2.1106
  Eu  Eu2  1  0.749130  0.560300  0.031260  1.0  2.1104
  Eu  Eu3  1  0.749130  0.939700  0.531260  1.0  2.1106
  Eu  Eu4  1  0.250870  0.439700  0.968740  1.0  2.1108
  H  H5  1  0.317900  0.698600  0.525000  1.0  0.073
  H  H6  1  0.536400  0.568800  0.643100  1.0  0.0696
  H  H7  1  0.527800  0.863800  0.596800  1.0  0.1067
  H  H8  1  0.981600  0.096200  0.050400  1.0  0.1395
  H  H9  1  0.037100  0.067400  0.882100  1.0  0.1288
  H  H10  1  0.682100  0.198600  0.975000  1.0  0.0724
  H  H11  1  0.463600  0.068800  0.856900  1.0  0.07
  H  H12  1  0.472200  0.363800  0.903200  1.0  0.1066
  H  H13  1  0.018400  0.596200  0.449600  1.0  0.1403
  H  H14  1  0.962900  0.567400  0.617900  1.0  0.1295
  H  H15  1  0.682100  0.301400  0.475000  1.0  0.0729
  H  H16  1  0.463600  0.431200  0.356900  1.0  0.069
  H  H17  1  0.472200  0.136200  0.403200  1.0  0.1058
  H  H18  1  0.018400  0.903800  0.949600  1.0  0.1395
  H  H19  1  0.962900  0.932600  0.117900  1.0  0.1292
  H  H20  1  0.317900  0.801400  0.025000  1.0  0.0733
  H  H21  1  0.536400  0.931200  0.143100  1.0  0.0688
  H  H22  1  0.527800  0.636200  0.096800  1.0  0.1061
  H  H23  1  0.981600  0.403800  0.550400  1.0  0.1381
  H  H24  1  0.037100  0.432600  0.382100  1.0  0.1292
  C  C25  1  0.358200  0.886800  0.520000  1.0  0.7015
  C  C26  1  0.413400  0.796200  0.555100  1.0  -0.215
  C  C27  1  0.376700  0.702800  0.552000  1.0  0.218
  C  C28  1  0.504900  0.626500  0.620000  1.0  0.197
  C  C29  1  0.548200  0.715700  0.623500  1.0  -0.2047
  C  C30  1  0.501000  0.802700  0.592400  1.0  -0.0065
  C  C31  1  0.643800  0.717100  0.660500  1.0  0.716
  C  C32  1  0.100900  0.049600  0.170000  1.0  0.6858
  C  C33  1  0.021400  0.047600  0.012200  1.0  -0.2746
  C  C34  1  0.641800  0.386800  0.980000  1.0  0.701
  C  C35  1  0.586600  0.296200  0.944900  1.0  -0.2147
  C  C36  1  0.623300  0.202800  0.948000  1.0  0.2176
  C  C37  1  0.495100  0.126500  0.880000  1.0  0.1976
  C  C38  1  0.451800  0.215700  0.876500  1.0  -0.2046
  C  C39  1  0.499000  0.302700  0.907600  1.0  -0.0065
  C  C40  1  0.356200  0.217100  0.839500  1.0  0.7128
  C  C41  1  0.899100  0.549600  0.330000  1.0  0.688
  C  C42  1  0.978600  0.547600  0.487800  1.0  -0.2748
  C  C43  1  0.641800  0.113200  0.480000  1.0  0.7022
  C  C44  1  0.586600  0.203800  0.444900  1.0  -0.2142
  C  C45  1  0.623300  0.297200  0.448000  1.0  0.2175
  C  C46  1  0.495100  0.373500  0.380000  1.0  0.1947
  C  C47  1  0.451800  0.284300  0.376500  1.0  -0.2045
  C  C48  1  0.499000  0.197300  0.407600  1.0  -0.0049
  C  C49  1  0.356200  0.282900  0.339500  1.0  0.713
  C  C50  1  0.899100  0.950400  0.830000  1.0  0.7015
  C  C51  1  0.978600  0.952400  0.987800  1.0  -0.2735
  C  C52  1  0.358200  0.613200  0.020000  1.0  0.7009
  C  C53  1  0.413400  0.703800  0.055100  1.0  -0.2148
  C  C54  1  0.376700  0.797200  0.052000  1.0  0.2168
  C  C55  1  0.504900  0.873500  0.120000  1.0  0.1951
  C  C56  1  0.548200  0.784300  0.123500  1.0  -0.2051
  C  C57  1  0.501000  0.697300  0.092400  1.0  -0.0048
  C  C58  1  0.643800  0.782900  0.160500  1.0  0.7163
  C  C59  1  0.100900  0.450400  0.670000  1.0  0.6987
  C  C60  1  0.021400  0.452400  0.512200  1.0  -0.2738
  N  N61  1  0.420400  0.618900  0.585300  1.0  -0.4196
  N  N62  1  0.579600  0.118900  0.914700  1.0  -0.4201
  N  N63  1  0.579600  0.381100  0.414700  1.0  -0.421
  N  N64  1  0.420400  0.881100  0.085300  1.0  -0.4205
  O  O65  1  0.389100  0.969900  0.561700  1.0  -0.6608
  O  O66  1  0.281700  0.875800  0.448100  1.0  -0.6738
  O  O67  1  0.680700  0.637300  0.711400  1.0  -0.6978
  O  O68  1  0.679800  0.796400  0.632500  1.0  -0.783
  O  O69  1  0.112800  0.988000  0.309500  1.0  -0.6024
  O  O70  1  0.151600  0.118400  0.156500  1.0  -0.6154
  O  O71  1  0.610900  0.469900  0.938300  1.0  -0.6566
  O  O72  1  0.718300  0.375800  0.051900  1.0  -0.6725
  O  O73  1  0.319300  0.137300  0.788600  1.0  -0.699
  O  O74  1  0.320200  0.296400  0.867500  1.0  -0.7864
  O  O75  1  0.887200  0.488000  0.190500  1.0  -0.5998
  O  O76  1  0.848400  0.618400  0.343500  1.0  -0.6153
  O  O77  1  0.610900  0.030100  0.438300  1.0  -0.6583
  O  O78  1  0.718300  0.124200  0.551900  1.0  -0.6724
  O  O79  1  0.319300  0.362700  0.288600  1.0  -0.699
  O  O80  1  0.320200  0.203600  0.367500  1.0  -0.7855
  O  O81  1  0.887200  0.012000  0.690500  1.0  -0.5998
  O  O82  1  0.848400  0.881600  0.843500  1.0  -0.6148
  O  O83  1  0.389100  0.530100  0.061700  1.0  -0.6613
  O  O84  1  0.281700  0.624200  0.948100  1.0  -0.6733
  O  O85  1  0.680700  0.862700  0.211400  1.0  -0.6965
  O  O86  1  0.679800  0.703600  0.132500  1.0  -0.7819
  O  O87  1  0.112800  0.512000  0.809500  1.0  -0.6036
  O  O88  1  0.151600  0.381600  0.656500  1.0  -0.6151
