# generated using pymatgen
data_ErH5C9NO6
_symmetry_space_group_name_H-M   'P 1'
_cell_length_a   15.85850000
_cell_length_b   13.41900000
_cell_length_c   6.61580000
_cell_angle_alpha   90.00000000
_cell_angle_beta   97.92500000
_cell_angle_gamma   90.00000000
_symmetry_Int_Tables_number   1
_chemical_formula_structural   ErH5C9NO6
_chemical_formula_sum   'Er4 H20 C36 N4 O24'
_cell_volume   1394.43064727
_cell_formula_units_Z   4
loop_
 _symmetry_equiv_pos_site_id
 _symmetry_equiv_pos_as_xyz
  1  'x, y, z'
loop_
 _atom_site_type_symbol
 _atom_site_label
 _atom_site_symmetry_multiplicity
 _atom_site_fract_x
 _atom_site_fract_y
 _atom_site_fract_z
 _atom_site_occupancy
 _atom_site_charge
  Er  Er1  1  0.248820  0.560990  0.036000  1.0  1.5663
  Er  Er2  1  0.751180  0.060990  0.464000  1.0  1.5663
  Er  Er3  1  0.751180  0.439010  0.964000  1.0  1.5666
  Er  Er4  1  0.248820  0.939010  0.536000  1.0  1.568
  H  H5  1  0.183300  0.199000  0.981900  1.0  0.1068
  H  H6  1  0.964000  0.068000  0.853900  1.0  0.1006
  H  H7  1  0.973100  0.365500  0.901400  1.0  0.1342
  H  H8  1  0.517800  0.598600  0.455700  1.0  0.16
  H  H9  1  0.462100  0.566300  0.622100  1.0  0.1537
  H  H10  1  0.816700  0.699000  0.518100  1.0  0.1075
  H  H11  1  0.036000  0.568000  0.646100  1.0  0.1001
  H  H12  1  0.026900  0.865500  0.598600  1.0  0.1341
  H  H13  1  0.482200  0.098600  0.044300  1.0  0.1584
  H  H14  1  0.537900  0.066300  0.877900  1.0  0.1523
  H  H15  1  0.816700  0.801000  0.018100  1.0  0.1078
  H  H16  1  0.036000  0.932000  0.146100  1.0  0.0997
  H  H17  1  0.026900  0.634500  0.098600  1.0  0.1338
  H  H18  1  0.482200  0.401400  0.544300  1.0  0.158
  H  H19  1  0.537900  0.433700  0.377900  1.0  0.1551
  H  H20  1  0.183300  0.301000  0.481900  1.0  0.1073
  H  H21  1  0.964000  0.432000  0.353900  1.0  0.1
  H  H22  1  0.973100  0.134500  0.401400  1.0  0.1337
  H  H23  1  0.517800  0.901400  0.955700  1.0  0.1604
  H  H24  1  0.462100  0.933700  0.122100  1.0  0.1541
  C  C25  1  0.142900  0.388500  0.983300  1.0  0.7035
  C  C26  1  0.086800  0.296800  0.946100  1.0  -0.1607
  C  C27  1  0.124400  0.203200  0.952100  1.0  0.2407
  C  C28  1  0.995500  0.126300  0.879700  1.0  0.2261
  C  C29  1  0.951500  0.216100  0.877000  1.0  -0.1199
  C  C30  1  0.999700  0.303700  0.907400  1.0  0.0345
  C  C31  1  0.856500  0.216900  0.836700  1.0  0.7517
  C  C32  1  0.399500  0.551900  0.333333  1.0  0.7107
  C  C33  1  0.478100  0.548600  0.490400  1.0  -0.2697
  C  C34  1  0.857100  0.888500  0.516700  1.0  0.7047
  C  C35  1  0.913200  0.796800  0.553900  1.0  -0.1597
  C  C36  1  0.875600  0.703200  0.547900  1.0  0.2465
  C  C37  1  0.004500  0.626300  0.620300  1.0  0.2219
  C  C38  1  0.048500  0.716100  0.623000  1.0  -0.118
  C  C39  1  0.000300  0.803700  0.592600  1.0  0.0319
  C  C40  1  0.143500  0.716900  0.663300  1.0  0.7553
  C  C41  1  0.600500  0.051900  0.166700  1.0  0.7168
  C  C42  1  0.521900  0.048600  0.009600  1.0  -0.2693
  C  C43  1  0.857100  0.611500  0.016700  1.0  0.7027
  C  C44  1  0.913200  0.703200  0.053900  1.0  -0.1599
  C  C45  1  0.875600  0.796800  0.047900  1.0  0.2433
  C  C46  1  0.004500  0.873700  0.120300  1.0  0.2176
  C  C47  1  0.048500  0.783900  0.123000  1.0  -0.1184
  C  C48  1  0.000300  0.696300  0.092600  1.0  0.0337
  C  C49  1  0.143500  0.783100  0.163300  1.0  0.7665
  C  C50  1  0.600500  0.448100  0.666667  1.0  0.7174
  C  C51  1  0.521900  0.451400  0.509600  1.0  -0.2686
  C  C52  1  0.142900  0.111500  0.483300  1.0  0.7044
  C  C53  1  0.086800  0.203200  0.446100  1.0  -0.1603
  C  C54  1  0.124400  0.296800  0.452100  1.0  0.2391
  C  C55  1  0.995500  0.373700  0.379700  1.0  0.2222
  C  C56  1  0.951500  0.283900  0.377000  1.0  -0.1199
  C  C57  1  0.999700  0.196300  0.407400  1.0  0.0354
  C  C58  1  0.856500  0.283100  0.336700  1.0  0.765
  C  C59  1  0.399500  0.948100  0.833300  1.0  0.7178
  C  C60  1  0.478100  0.951400  0.990400  1.0  -0.2677
  N  N61  1  0.079880  0.118760  0.917000  1.0  -0.3917
  N  N62  1  0.920120  0.618760  0.583000  1.0  -0.3924
  N  N63  1  0.920120  0.881240  0.083000  1.0  -0.3945
  N  N64  1  0.079880  0.381240  0.417000  1.0  -0.3939
  O  O65  1  0.110870  0.473190  0.942800  1.0  -0.6319
  O  O66  1  0.219500  0.377560  0.056100  1.0  -0.6187
  O  O67  1  0.818920  0.136900  0.782800  1.0  -0.6645
  O  O68  1  0.818980  0.296700  0.865500  1.0  -0.7717
  O  O69  1  0.384820  0.487900  0.192800  1.0  -0.627
  O  O70  1  0.346800  0.621100  0.346000  1.0  -0.6419
  O  O71  1  0.889130  0.973190  0.557200  1.0  -0.628
  O  O72  1  0.780500  0.877560  0.443900  1.0  -0.6247
  O  O73  1  0.181080  0.636900  0.717200  1.0  -0.6687
  O  O74  1  0.181020  0.796700  0.634500  1.0  -0.7709
  O  O75  1  0.615180  0.987900  0.307200  1.0  -0.6264
  O  O76  1  0.653200  0.121100  0.154000  1.0  -0.6444
  O  O77  1  0.889130  0.526810  0.057200  1.0  -0.629
  O  O78  1  0.780500  0.622440  0.943900  1.0  -0.6234
  O  O79  1  0.181080  0.863100  0.217200  1.0  -0.6633
  O  O80  1  0.181020  0.703300  0.134500  1.0  -0.7709
  O  O81  1  0.615180  0.512100  0.807200  1.0  -0.625
  O  O82  1  0.653200  0.378900  0.654000  1.0  -0.644
  O  O83  1  0.110870  0.026810  0.442800  1.0  -0.6351
  O  O84  1  0.219500  0.122440  0.556100  1.0  -0.6167
  O  O85  1  0.818920  0.363100  0.282800  1.0  -0.6643
  O  O86  1  0.818980  0.203300  0.365500  1.0  -0.7715
  O  O87  1  0.384820  0.012100  0.692800  1.0  -0.6264
  O  O88  1  0.346800  0.878900  0.846000  1.0  -0.6414
