# generated using pymatgen
data_TbH5C9NO6
_symmetry_space_group_name_H-M   'P 1'
_cell_length_a   15.87340000
_cell_length_b   13.45250000
_cell_length_c   6.63090000
_cell_angle_alpha   90.00000000
_cell_angle_beta   97.86200000
_cell_angle_gamma   90.00000000
_symmetry_Int_Tables_number   1
_chemical_formula_structural   TbH5C9NO6
_chemical_formula_sum   'Tb4 H20 C36 N4 O24'
_cell_volume   1402.63263498
_cell_formula_units_Z   4
loop_
 _symmetry_equiv_pos_site_id
 _symmetry_equiv_pos_as_xyz
  1  'x, y, z'
loop_
 _atom_site_type_symbol
 _atom_site_label
 _atom_site_symmetry_multiplicity
 _atom_site_fract_x
 _atom_site_fract_y
 _atom_site_fract_z
 _atom_site_occupancy
 _atom_site_charge
  Tb  Tb1  1  0.251180  0.939200  0.465050  1.0  2.2104
  Tb  Tb2  1  0.748820  0.439200  0.034950  1.0  2.2146
  Tb  Tb3  1  0.748820  0.060800  0.534950  1.0  2.2124
  Tb  Tb4  1  0.251180  0.560800  0.965050  1.0  2.2112
  H  H5  1  0.463900  0.567900  0.354800  1.0  0.0741
  H  H6  1  0.682700  0.698800  0.480200  1.0  0.0651
  H  H7  1  0.472000  0.864600  0.404300  1.0  0.1038
  H  H8  1  0.037900  0.933600  0.879400  1.0  0.1247
  H  H9  1  0.982300  0.902100  0.046100  1.0  0.1298
  H  H10  1  0.536100  0.067900  0.145200  1.0  0.0739
  H  H11  1  0.317300  0.198800  0.019800  1.0  0.0656
  H  H12  1  0.528000  0.364600  0.095700  1.0  0.104
  H  H13  1  0.962100  0.433600  0.620600  1.0  0.1253
  H  H14  1  0.017700  0.402100  0.453900  1.0  0.1315
  H  H15  1  0.536100  0.432100  0.645200  1.0  0.0737
  H  H16  1  0.317300  0.301200  0.519800  1.0  0.0658
  H  H17  1  0.528000  0.135400  0.595700  1.0  0.1033
  H  H18  1  0.962100  0.066400  0.120600  1.0  0.1257
  H  H19  1  0.017700  0.097900  0.953900  1.0  0.1308
  H  H20  1  0.463900  0.932100  0.854800  1.0  0.0736
  H  H21  1  0.682700  0.801200  0.980200  1.0  0.0657
  H  H22  1  0.472000  0.635400  0.904300  1.0  0.103
  H  H23  1  0.037900  0.566400  0.379400  1.0  0.1247
  H  H24  1  0.982300  0.597900  0.546100  1.0  0.1296
  C  C25  1  0.356200  0.717000  0.337600  1.0  0.7455
  C  C26  1  0.452100  0.716400  0.376200  1.0  -0.1971
  C  C27  1  0.495400  0.625900  0.379500  1.0  0.1927
  C  C28  1  0.623900  0.703200  0.451000  1.0  0.2127
  C  C29  1  0.587100  0.796600  0.446000  1.0  -0.1887
  C  C30  1  0.499000  0.803100  0.408200  1.0  0.002
  C  C31  1  0.642400  0.888000  0.482400  1.0  0.6764
  C  C32  1  0.100700  0.948600  0.167200  1.0  0.6693
  C  C33  1  0.021900  0.951900  0.010600  1.0  -0.2964
  C  C34  1  0.643800  0.217000  0.162400  1.0  0.7469
  C  C35  1  0.547900  0.216400  0.123800  1.0  -0.1978
  C  C36  1  0.504600  0.125900  0.120500  1.0  0.1923
  C  C37  1  0.376100  0.203200  0.049000  1.0  0.2126
  C  C38  1  0.412900  0.296600  0.054000  1.0  -0.1891
  C  C39  1  0.501000  0.303100  0.091800  1.0  0.0016
  C  C40  1  0.357600  0.388000  0.017600  1.0  0.6757
  C  C41  1  0.899300  0.448600  0.332800  1.0  0.6703
  C  C42  1  0.978100  0.451900  0.489400  1.0  -0.2955
  C  C43  1  0.643800  0.283000  0.662400  1.0  0.7472
  C  C44  1  0.547900  0.283600  0.623800  1.0  -0.1981
  C  C45  1  0.504600  0.374100  0.620500  1.0  0.1909
  C  C46  1  0.376100  0.296800  0.549000  1.0  0.2113
  C  C47  1  0.412900  0.203400  0.554000  1.0  -0.189
  C  C48  1  0.501000  0.196900  0.591800  1.0  0.0024
  C  C49  1  0.357600  0.112000  0.517600  1.0  0.6742
  C  C50  1  0.899300  0.051400  0.832800  1.0  0.6787
  C  C51  1  0.978100  0.048100  0.989400  1.0  -0.297
  C  C52  1  0.356200  0.783000  0.837600  1.0  0.7458
  C  C53  1  0.452100  0.783600  0.876200  1.0  -0.197
  C  C54  1  0.495400  0.874100  0.879500  1.0  0.1902
  C  C55  1  0.623900  0.796800  0.951000  1.0  0.2119
  C  C56  1  0.587100  0.703400  0.946000  1.0  -0.1887
  C  C57  1  0.499000  0.696900  0.908200  1.0  0.0026
  C  C58  1  0.642400  0.612000  0.982400  1.0  0.6777
  C  C59  1  0.100700  0.551400  0.667200  1.0  0.6768
  C  C60  1  0.021900  0.548100  0.510600  1.0  -0.2973
  N  N61  1  0.579800  0.619000  0.416300  1.0  -0.4258
  N  N62  1  0.420200  0.119000  0.083700  1.0  -0.4261
  N  N63  1  0.420200  0.381000  0.583700  1.0  -0.4277
  N  N64  1  0.579800  0.881000  0.916300  1.0  -0.4278
  O  O65  1  0.319650  0.796700  0.365500  1.0  -0.798
  O  O66  1  0.318870  0.637300  0.284000  1.0  -0.6981
  O  O67  1  0.719210  0.876500  0.555300  1.0  -0.665
  O  O68  1  0.610400  0.971700  0.441500  1.0  -0.6552
  O  O69  1  0.152700  0.879300  0.153700  1.0  -0.6604
  O  O70  1  0.114530  0.011400  0.307300  1.0  -0.6275
  O  O71  1  0.680350  0.296700  0.134500  1.0  -0.7945
  O  O72  1  0.681130  0.137300  0.216000  1.0  -0.697
  O  O73  1  0.280790  0.376500  0.944700  1.0  -0.6677
  O  O74  1  0.389600  0.471700  0.058500  1.0  -0.6568
  O  O75  1  0.847300  0.379300  0.346300  1.0  -0.6589
  O  O76  1  0.885470  0.511400  0.192700  1.0  -0.6261
  O  O77  1  0.680350  0.203300  0.634500  1.0  -0.7942
  O  O78  1  0.681130  0.362700  0.716000  1.0  -0.696
  O  O79  1  0.280790  0.123500  0.444700  1.0  -0.6674
  O  O80  1  0.389600  0.028300  0.558500  1.0  -0.6552
  O  O81  1  0.847300  0.120700  0.846300  1.0  -0.6605
  O  O82  1  0.885470  0.988600  0.692700  1.0  -0.627
  O  O83  1  0.319650  0.703300  0.865500  1.0  -0.7975
  O  O84  1  0.318870  0.862700  0.784000  1.0  -0.6988
  O  O85  1  0.719210  0.623500  0.055300  1.0  -0.6651
  O  O86  1  0.610400  0.528300  0.941500  1.0  -0.6557
  O  O87  1  0.152700  0.620700  0.653700  1.0  -0.6618
  O  O88  1  0.114530  0.488600  0.807300  1.0  -0.6262
