# generated using pymatgen
data_PrH5C9NO6
_symmetry_space_group_name_H-M   'P 1'
_cell_length_a   15.93000000
_cell_length_b   13.58800000
_cell_length_c   6.66300000
_cell_angle_alpha   90.00000000
_cell_angle_beta   97.39200000
_cell_angle_gamma   90.00000000
_symmetry_Int_Tables_number   1
_chemical_formula_structural   PrH5C9NO6
_chemical_formula_sum   'Pr4 H20 C36 N4 O24'
_cell_volume   1430.26556528
_cell_formula_units_Z   4
loop_
 _symmetry_equiv_pos_site_id
 _symmetry_equiv_pos_as_xyz
  1  'x, y, z'
loop_
 _atom_site_type_symbol
 _atom_site_label
 _atom_site_symmetry_multiplicity
 _atom_site_fract_x
 _atom_site_fract_y
 _atom_site_fract_z
 _atom_site_occupancy
 _atom_site_charge
  Pr  Pr1  1  0.749450  0.940040  0.028610  1.0  2.1272
  Pr  Pr2  1  0.250550  0.440040  0.471390  1.0  2.1278
  Pr  Pr3  1  0.250550  0.059960  0.971390  1.0  2.1278
  Pr  Pr4  1  0.749450  0.559960  0.528610  1.0  2.1274
  H  H5  1  0.537000  0.931200  0.645300  1.0  0.077
  H  H6  1  0.318100  0.802200  0.530900  1.0  0.0814
  H  H7  1  0.527100  0.636100  0.596800  1.0  0.1071
  H  H8  1  0.966500  0.932500  0.618800  1.0  0.1048
  H  H9  1  0.021900  0.907300  0.447600  1.0  0.1118
  H  H10  1  0.463000  0.431200  0.854700  1.0  0.077
  H  H11  1  0.681900  0.302200  0.969100  1.0  0.081
  H  H12  1  0.472900  0.136100  0.903200  1.0  0.1069
  H  H13  1  0.033500  0.432500  0.881200  1.0  0.1041
  H  H14  1  0.978100  0.407300  0.052400  1.0  0.1108
  H  H15  1  0.463000  0.068800  0.354700  1.0  0.0776
  H  H16  1  0.681900  0.197800  0.469100  1.0  0.0808
  H  H17  1  0.472900  0.363900  0.403200  1.0  0.1073
  H  H18  1  0.033500  0.067500  0.381200  1.0  0.1045
  H  H19  1  0.978100  0.092700  0.552400  1.0  0.1124
  H  H20  1  0.537000  0.568800  0.145300  1.0  0.0773
  H  H21  1  0.318100  0.697800  0.030900  1.0  0.0811
  H  H22  1  0.527100  0.863900  0.096800  1.0  0.1074
  H  H23  1  0.966500  0.567500  0.118800  1.0  0.105
  H  H24  1  0.021900  0.592700  0.947600  1.0  0.1135
  C  C25  1  0.643300  0.783900  0.657500  1.0  0.735
  C  C26  1  0.548500  0.783400  0.623000  1.0  -0.1656
  C  C27  1  0.505600  0.873800  0.621100  1.0  0.1961
  C  C28  1  0.376800  0.797500  0.555200  1.0  0.2122
  C  C29  1  0.413600  0.704200  0.557800  1.0  -0.1943
  C  C30  1  0.500700  0.697200  0.593000  1.0  -0.0004
  C  C31  1  0.357700  0.614400  0.521800  1.0  0.6841
  C  C32  1  0.899300  0.952400  0.329000  1.0  0.657
  C  C33  1  0.981300  0.953900  0.489000  1.0  -0.2384
  C  C34  1  0.356700  0.283900  0.842500  1.0  0.7305
  C  C35  1  0.451500  0.283400  0.877000  1.0  -0.1649
  C  C36  1  0.494400  0.373800  0.878900  1.0  0.1956
  C  C37  1  0.623200  0.297500  0.944800  1.0  0.2129
  C  C38  1  0.586400  0.204200  0.942200  1.0  -0.1939
  C  C39  1  0.499300  0.197200  0.907000  1.0  0.0
  C  C40  1  0.642300  0.114400  0.978200  1.0  0.6861
  C  C41  1  0.100700  0.452400  0.171000  1.0  0.6541
  C  C42  1  0.018700  0.453900  0.011000  1.0  -0.2382
  C  C43  1  0.356700  0.216100  0.342500  1.0  0.7303
  C  C44  1  0.451500  0.216600  0.377000  1.0  -0.165
  C  C45  1  0.494400  0.126200  0.378900  1.0  0.1971
  C  C46  1  0.623200  0.202500  0.444800  1.0  0.2134
  C  C47  1  0.586400  0.295800  0.442200  1.0  -0.1945
  C  C48  1  0.499300  0.302800  0.407000  1.0  -0.001
  C  C49  1  0.642300  0.385600  0.478200  1.0  0.6844
  C  C50  1  0.100700  0.047600  0.671000  1.0  0.6642
  C  C51  1  0.018700  0.046100  0.511000  1.0  -0.2386
  C  C52  1  0.643300  0.716100  0.157500  1.0  0.735
  C  C53  1  0.548500  0.716600  0.123000  1.0  -0.1652
  C  C54  1  0.505600  0.626200  0.121100  1.0  0.1965
  C  C55  1  0.376800  0.702500  0.055200  1.0  0.2133
  C  C56  1  0.413600  0.795800  0.057800  1.0  -0.1945
  C  C57  1  0.500700  0.802800  0.093000  1.0  -0.0011
  C  C58  1  0.357700  0.885600  0.021800  1.0  0.685
  C  C59  1  0.899300  0.547600  0.829000  1.0  0.6676
  C  C60  1  0.981300  0.546100  0.989000  1.0  -0.2394
  N  N61  1  0.421600  0.880500  0.586000  1.0  -0.4173
  N  N62  1  0.578400  0.380500  0.914000  1.0  -0.4164
  N  N63  1  0.578400  0.119500  0.414000  1.0  -0.413
  N  N64  1  0.421600  0.619500  0.086000  1.0  -0.4152
  O  O65  1  0.680600  0.862000  0.709900  1.0  -0.6821
  O  O66  1  0.679600  0.704400  0.633300  1.0  -0.77
  O  O67  1  0.281300  0.624500  0.450500  1.0  -0.6567
  O  O68  1  0.389800  0.530900  0.563000  1.0  -0.6794
  O  O69  1  0.888600  0.013300  0.185000  1.0  -0.6457
  O  O70  1  0.849000  0.883000  0.339400  1.0  -0.6509
  O  O71  1  0.319400  0.362000  0.790100  1.0  -0.6806
  O  O72  1  0.320400  0.204400  0.866700  1.0  -0.7723
  O  O73  1  0.718700  0.124500  0.049500  1.0  -0.6503
  O  O74  1  0.610200  0.030900  0.937000  1.0  -0.6794
  O  O75  1  0.111400  0.513300  0.315000  1.0  -0.6455
  O  O76  1  0.151000  0.383000  0.160600  1.0  -0.6505
  O  O77  1  0.319400  0.138000  0.290100  1.0  -0.6801
  O  O78  1  0.320400  0.295600  0.366700  1.0  -0.7741
  O  O79  1  0.718700  0.375500  0.549500  1.0  -0.6504
  O  O80  1  0.610200  0.469100  0.437000  1.0  -0.6781
  O  O81  1  0.111400  0.986700  0.815000  1.0  -0.6449
  O  O82  1  0.151000  0.117000  0.660600  1.0  -0.6514
  O  O83  1  0.680600  0.638000  0.209900  1.0  -0.6822
  O  O84  1  0.679600  0.795600  0.133300  1.0  -0.7717
  O  O85  1  0.281300  0.875500  0.950500  1.0  -0.6575
  O  O86  1  0.389800  0.969100  0.063000  1.0  -0.6812
  O  O87  1  0.888600  0.486700  0.685000  1.0  -0.6455
  O  O88  1  0.849000  0.617000  0.839400  1.0  -0.6521
