# generated using pymatgen
data_FeH2(C3O2)2
_symmetry_space_group_name_H-M   'P 1'
_cell_length_a   26.66900000
_cell_length_b   26.66900000
_cell_length_c   26.66900000
_cell_angle_alpha   90.00000000
_cell_angle_beta   90.00000000
_cell_angle_gamma   90.00000000
_symmetry_Int_Tables_number   1
_chemical_formula_structural   FeH2(C3O2)2
_chemical_formula_sum   'Fe48 H96 C288 O192'
_cell_volume   18967.94117631
_cell_formula_units_Z   48
loop_
 _symmetry_equiv_pos_site_id
 _symmetry_equiv_pos_as_xyz
  1  'x, y, z'
loop_
 _atom_site_type_symbol
 _atom_site_label
 _atom_site_symmetry_multiplicity
 _atom_site_fract_x
 _atom_site_fract_y
 _atom_site_fract_z
 _atom_site_occupancy
 _atom_site_charge
  Fe  Fe1  1  0.210630  0.210630  0.000000  1.0  1.0365
  Fe  Fe2  1  0.210630  0.710630  0.500000  1.0  1.0365
  Fe  Fe3  1  0.710630  0.210630  0.500000  1.0  1.0365
  Fe  Fe4  1  0.710630  0.710630  0.000000  1.0  1.0365
  Fe  Fe5  1  0.789370  0.789370  0.000000  1.0  1.0369
  Fe  Fe6  1  0.789370  0.289370  0.500000  1.0  1.0369
  Fe  Fe7  1  0.289370  0.789370  0.500000  1.0  1.0369
  Fe  Fe8  1  0.289370  0.289370  0.000000  1.0  1.0369
  Fe  Fe9  1  0.789370  0.210630  0.000000  1.0  1.0346
  Fe  Fe10  1  0.789370  0.710630  0.500000  1.0  1.0346
  Fe  Fe11  1  0.289370  0.210630  0.500000  1.0  1.0346
  Fe  Fe12  1  0.289370  0.710630  0.000000  1.0  1.0346
  Fe  Fe13  1  0.210630  0.789370  0.000000  1.0  1.0369
  Fe  Fe14  1  0.210630  0.289370  0.500000  1.0  1.0369
  Fe  Fe15  1  0.710630  0.789370  0.500000  1.0  1.0369
  Fe  Fe16  1  0.710630  0.289370  0.000000  1.0  1.0369
  Fe  Fe17  1  0.000000  0.210630  0.210630  1.0  1.0333
  Fe  Fe18  1  0.000000  0.710630  0.710630  1.0  1.0333
  Fe  Fe19  1  0.500000  0.210630  0.710630  1.0  1.0333
  Fe  Fe20  1  0.500000  0.710630  0.210630  1.0  1.0333
  Fe  Fe21  1  0.000000  0.789370  0.789370  1.0  1.0348
  Fe  Fe22  1  0.000000  0.289370  0.289370  1.0  1.0348
  Fe  Fe23  1  0.500000  0.789370  0.289370  1.0  1.0348
  Fe  Fe24  1  0.500000  0.289370  0.789370  1.0  1.0348
  Fe  Fe25  1  0.000000  0.789370  0.210630  1.0  1.0333
  Fe  Fe26  1  0.000000  0.289370  0.710630  1.0  1.0333
  Fe  Fe27  1  0.500000  0.789370  0.710630  1.0  1.0333
  Fe  Fe28  1  0.500000  0.289370  0.210630  1.0  1.0333
  Fe  Fe29  1  0.000000  0.210630  0.789370  1.0  1.0329
  Fe  Fe30  1  0.000000  0.710630  0.289370  1.0  1.0329
  Fe  Fe31  1  0.500000  0.210630  0.289370  1.0  1.0329
  Fe  Fe32  1  0.500000  0.710630  0.789370  1.0  1.0329
  Fe  Fe33  1  0.210630  0.000000  0.210630  1.0  1.0327
  Fe  Fe34  1  0.210630  0.500000  0.710630  1.0  1.0327
  Fe  Fe35  1  0.710630  0.000000  0.710630  1.0  1.0327
  Fe  Fe36  1  0.710630  0.500000  0.210630  1.0  1.0327
  Fe  Fe37  1  0.789370  0.000000  0.789370  1.0  1.032
  Fe  Fe38  1  0.789370  0.500000  0.289370  1.0  1.032
  Fe  Fe39  1  0.289370  0.000000  0.289370  1.0  1.032
  Fe  Fe40  1  0.289370  0.500000  0.789370  1.0  1.032
  Fe  Fe41  1  0.210630  0.000000  0.789370  1.0  1.0336
  Fe  Fe42  1  0.210630  0.500000  0.289370  1.0  1.0336
  Fe  Fe43  1  0.710630  0.000000  0.289370  1.0  1.0336
  Fe  Fe44  1  0.710630  0.500000  0.789370  1.0  1.0336
  Fe  Fe45  1  0.789370  0.000000  0.210630  1.0  1.0315
  Fe  Fe46  1  0.789370  0.500000  0.710630  1.0  1.0315
  Fe  Fe47  1  0.289370  0.000000  0.710630  1.0  1.0315
  Fe  Fe48  1  0.289370  0.500000  0.210630  1.0  1.0315
  H  H49  1  0.223000  0.382500  0.117500  1.0  0.1095
  H  H50  1  0.723000  0.382500  0.617500  1.0  0.1095
  H  H51  1  0.777000  0.617500  0.117500  1.0  0.1095
  H  H52  1  0.277000  0.617500  0.617500  1.0  0.1095
  H  H53  1  0.277000  0.117500  0.117500  1.0  0.1095
  H  H54  1  0.777000  0.382500  0.882500  1.0  0.1096
  H  H55  1  0.277000  0.382500  0.382500  1.0  0.1096
  H  H56  1  0.223000  0.617500  0.882500  1.0  0.1095
  H  H57  1  0.223000  0.117500  0.382500  1.0  0.1095
  H  H58  1  0.723000  0.617500  0.382500  1.0  0.1095
  H  H59  1  0.117500  0.223000  0.382500  1.0  0.1093
  H  H60  1  0.117500  0.723000  0.882500  1.0  0.1093
  H  H61  1  0.117500  0.777000  0.617500  1.0  0.1092
  H  H62  1  0.117500  0.277000  0.117500  1.0  0.1092
  H  H63  1  0.882500  0.777000  0.382500  1.0  0.1098
  H  H64  1  0.882500  0.277000  0.882500  1.0  0.1098
  H  H65  1  0.382500  0.277000  0.382500  1.0  0.1098
  H  H66  1  0.882500  0.223000  0.617500  1.0  0.1094
  H  H67  1  0.882500  0.723000  0.117500  1.0  0.1094
  H  H68  1  0.382500  0.223000  0.117500  1.0  0.1094
  H  H69  1  0.382500  0.117500  0.223000  1.0  0.1106
  H  H70  1  0.382500  0.617500  0.723000  1.0  0.1106
  H  H71  1  0.617500  0.117500  0.777000  1.0  0.1094
  H  H72  1  0.617500  0.617500  0.277000  1.0  0.1094
  H  H73  1  0.117500  0.117500  0.277000  1.0  0.1094
  H  H74  1  0.382500  0.882500  0.777000  1.0  0.1099
  H  H75  1  0.382500  0.382500  0.277000  1.0  0.1099
  H  H76  1  0.617500  0.882500  0.223000  1.0  0.1105
  H  H77  1  0.617500  0.382500  0.723000  1.0  0.1105
  H  H78  1  0.117500  0.382500  0.223000  1.0  0.1105
  H  H79  1  0.382500  0.223000  0.882500  1.0  0.1093
  H  H80  1  0.382500  0.723000  0.382500  1.0  0.1093
  H  H81  1  0.617500  0.777000  0.882500  1.0  0.1095
  H  H82  1  0.617500  0.277000  0.382500  1.0  0.1095
  H  H83  1  0.117500  0.777000  0.382500  1.0  0.1095
  H  H84  1  0.382500  0.777000  0.117500  1.0  0.1095
  H  H85  1  0.382500  0.277000  0.617500  1.0  0.1095
  H  H86  1  0.617500  0.223000  0.117500  1.0  0.1093
  H  H87  1  0.617500  0.723000  0.617500  1.0  0.1093
  H  H88  1  0.117500  0.723000  0.117500  1.0  0.1093
  H  H89  1  0.223000  0.117500  0.617500  1.0  0.1091
  H  H90  1  0.723000  0.117500  0.117500  1.0  0.1091
  H  H91  1  0.777000  0.117500  0.382500  1.0  0.1098
  H  H92  1  0.277000  0.117500  0.882500  1.0  0.1098
  H  H93  1  0.777000  0.882500  0.617500  1.0  0.1096
  H  H94  1  0.777000  0.382500  0.117500  1.0  0.1096
  H  H95  1  0.277000  0.882500  0.117500  1.0  0.1096
  H  H96  1  0.223000  0.882500  0.382500  1.0  0.1096
  H  H97  1  0.723000  0.882500  0.882500  1.0  0.1096
  H  H98  1  0.723000  0.382500  0.382500  1.0  0.1096
  H  H99  1  0.117500  0.382500  0.777000  1.0  0.1095
  H  H100  1  0.117500  0.882500  0.277000  1.0  0.1095
  H  H101  1  0.117500  0.617500  0.223000  1.0  0.1106
  H  H102  1  0.117500  0.117500  0.723000  1.0  0.1106
  H  H103  1  0.882500  0.382500  0.223000  1.0  0.1106
  H  H104  1  0.882500  0.882500  0.723000  1.0  0.1106
  H  H105  1  0.382500  0.382500  0.723000  1.0  0.1106
  H  H106  1  0.882500  0.617500  0.777000  1.0  0.1097
  H  H107  1  0.882500  0.117500  0.277000  1.0  0.1097
  H  H108  1  0.382500  0.117500  0.777000  1.0  0.1097
  H  H109  1  0.777000  0.617500  0.882500  1.0  0.1098
  H  H110  1  0.277000  0.617500  0.382500  1.0  0.1098
  H  H111  1  0.223000  0.382500  0.882500  1.0  0.1096
  H  H112  1  0.223000  0.617500  0.117500  1.0  0.1091
  H  H113  1  0.723000  0.617500  0.617500  1.0  0.1091
  H  H114  1  0.277000  0.382500  0.617500  1.0  0.1096
  H  H115  1  0.882500  0.777000  0.617500  1.0  0.1095
  H  H116  1  0.882500  0.277000  0.117500  1.0  0.1095
  H  H117  1  0.882500  0.223000  0.382500  1.0  0.1093
  H  H118  1  0.882500  0.723000  0.882500  1.0  0.1093
  H  H119  1  0.117500  0.223000  0.617500  1.0  0.1093
  H  H120  1  0.117500  0.277000  0.882500  1.0  0.1095
  H  H121  1  0.617500  0.882500  0.777000  1.0  0.1095
  H  H122  1  0.617500  0.382500  0.277000  1.0  0.1095
  H  H123  1  0.382500  0.882500  0.223000  1.0  0.1106
  H  H124  1  0.617500  0.117500  0.223000  1.0  0.1106
  H  H125  1  0.617500  0.617500  0.723000  1.0  0.1106
  H  H126  1  0.382500  0.617500  0.277000  1.0  0.1097
  H  H127  1  0.617500  0.777000  0.117500  1.0  0.1092
  H  H128  1  0.617500  0.277000  0.617500  1.0  0.1092
  H  H129  1  0.382500  0.723000  0.617500  1.0  0.1094
  H  H130  1  0.617500  0.223000  0.882500  1.0  0.1093
  H  H131  1  0.617500  0.723000  0.382500  1.0  0.1093
  H  H132  1  0.382500  0.777000  0.882500  1.0  0.1098
  H  H133  1  0.777000  0.882500  0.382500  1.0  0.1096
  H  H134  1  0.277000  0.882500  0.882500  1.0  0.1096
  H  H135  1  0.223000  0.882500  0.617500  1.0  0.1095
  H  H136  1  0.723000  0.882500  0.117500  1.0  0.1095
  H  H137  1  0.723000  0.117500  0.882500  1.0  0.1095
  H  H138  1  0.777000  0.117500  0.617500  1.0  0.1095
  H  H139  1  0.882500  0.617500  0.223000  1.0  0.1106
  H  H140  1  0.882500  0.117500  0.723000  1.0  0.1106
  H  H141  1  0.882500  0.382500  0.777000  1.0  0.1099
  H  H142  1  0.882500  0.882500  0.277000  1.0  0.1099
  H  H143  1  0.117500  0.617500  0.777000  1.0  0.1094
  H  H144  1  0.117500  0.882500  0.723000  1.0  0.1105
  C  C145  1  0.200000  0.300000  0.069500  1.0  0.6937
  C  C146  1  0.179000  0.321000  0.113800  1.0  -0.1026
  C  C147  1  0.200000  0.800000  0.569500  1.0  0.6937
  C  C148  1  0.179000  0.821000  0.613800  1.0  -0.1026
  C  C149  1  0.800000  0.700000  0.069500  1.0  0.693
  C  C150  1  0.821000  0.679000  0.113800  1.0  -0.1024
  C  C151  1  0.800000  0.200000  0.569500  1.0  0.693
  C  C152  1  0.821000  0.179000  0.613800  1.0  -0.1024
  C  C153  1  0.300000  0.200000  0.069500  1.0  0.693
  C  C154  1  0.321000  0.179000  0.113800  1.0  -0.1024
  C  C155  1  0.800000  0.300000  0.930500  1.0  0.6909
  C  C156  1  0.821000  0.321000  0.886200  1.0  -0.1024
  C  C157  1  0.800000  0.800000  0.430500  1.0  0.6909
  C  C158  1  0.821000  0.821000  0.386200  1.0  -0.1024
  C  C159  1  0.300000  0.300000  0.430500  1.0  0.6909
  C  C160  1  0.321000  0.321000  0.386200  1.0  -0.1024
  C  C161  1  0.200000  0.700000  0.930500  1.0  0.6913
  C  C162  1  0.179000  0.679000  0.886200  1.0  -0.1024
  C  C163  1  0.200000  0.200000  0.430500  1.0  0.6913
  C  C164  1  0.179000  0.179000  0.386200  1.0  -0.1024
  C  C165  1  0.069500  0.200000  0.300000  1.0  0.6856
  C  C166  1  0.113800  0.179000  0.321000  1.0  -0.1026
  C  C167  1  0.569500  0.200000  0.800000  1.0  0.6856
  C  C168  1  0.613800  0.179000  0.821000  1.0  -0.1026
  C  C169  1  0.069500  0.800000  0.700000  1.0  0.6857
  C  C170  1  0.113800  0.821000  0.679000  1.0  -0.1024
  C  C171  1  0.069500  0.300000  0.200000  1.0  0.6857
  C  C172  1  0.113800  0.321000  0.179000  1.0  -0.1024
  C  C173  1  0.569500  0.800000  0.200000  1.0  0.6857
  C  C174  1  0.613800  0.821000  0.179000  1.0  -0.1024
  C  C175  1  0.930500  0.800000  0.300000  1.0  0.6873
  C  C176  1  0.886200  0.821000  0.321000  1.0  -0.1021
  C  C177  1  0.430500  0.800000  0.800000  1.0  0.6873
  C  C178  1  0.386200  0.821000  0.821000  1.0  -0.1021
  C  C179  1  0.430500  0.300000  0.300000  1.0  0.6873
  C  C180  1  0.386200  0.321000  0.321000  1.0  -0.1021
  C  C181  1  0.930500  0.200000  0.700000  1.0  0.6872
  C  C182  1  0.886200  0.179000  0.679000  1.0  -0.1022
  C  C183  1  0.430500  0.200000  0.200000  1.0  0.6872
  C  C184  1  0.386200  0.179000  0.179000  1.0  -0.1022
  C  C185  1  0.300000  0.069500  0.200000  1.0  0.6834
  C  C186  1  0.321000  0.113800  0.179000  1.0  -0.1023
  C  C187  1  0.300000  0.569500  0.700000  1.0  0.6834
  C  C188  1  0.321000  0.613800  0.679000  1.0  -0.1023
  C  C189  1  0.700000  0.069500  0.800000  1.0  0.6839
  C  C190  1  0.679000  0.113800  0.821000  1.0  -0.1025
  C  C191  1  0.700000  0.569500  0.300000  1.0  0.6839
  C  C192  1  0.679000  0.613800  0.321000  1.0  -0.1025
  C  C193  1  0.200000  0.069500  0.300000  1.0  0.6839
  C  C194  1  0.179000  0.113800  0.321000  1.0  -0.1025
  C  C195  1  0.300000  0.930500  0.800000  1.0  0.6841
  C  C196  1  0.321000  0.886200  0.821000  1.0  -0.1028
  C  C197  1  0.300000  0.430500  0.300000  1.0  0.6841
  C  C198  1  0.321000  0.386200  0.321000  1.0  -0.1028
  C  C199  1  0.700000  0.930500  0.200000  1.0  0.6842
  C  C200  1  0.679000  0.886200  0.179000  1.0  -0.103
  C  C201  1  0.700000  0.430500  0.700000  1.0  0.6842
  C  C202  1  0.679000  0.386200  0.679000  1.0  -0.103
  C  C203  1  0.200000  0.430500  0.200000  1.0  0.6842
  C  C204  1  0.179000  0.386200  0.179000  1.0  -0.103
  C  C205  1  0.300000  0.200000  0.930500  1.0  0.6907
  C  C206  1  0.321000  0.179000  0.886200  1.0  -0.1024
  C  C207  1  0.300000  0.700000  0.430500  1.0  0.6907
  C  C208  1  0.321000  0.679000  0.386200  1.0  -0.1024
  C  C209  1  0.700000  0.800000  0.930500  1.0  0.6914
  C  C210  1  0.679000  0.821000  0.886200  1.0  -0.1024
  C  C211  1  0.700000  0.300000  0.430500  1.0  0.6914
  C  C212  1  0.679000  0.321000  0.386200  1.0  -0.1024
  C  C213  1  0.200000  0.300000  0.930500  1.0  0.6914
  C  C214  1  0.179000  0.321000  0.886200  1.0  -0.1024
  C  C215  1  0.300000  0.800000  0.069500  1.0  0.6937
  C  C216  1  0.321000  0.821000  0.113800  1.0  -0.1026
  C  C217  1  0.300000  0.300000  0.569500  1.0  0.6937
  C  C218  1  0.321000  0.321000  0.613800  1.0  -0.1026
  C  C219  1  0.700000  0.200000  0.069500  1.0  0.6931
  C  C220  1  0.679000  0.179000  0.113800  1.0  -0.1025
  C  C221  1  0.700000  0.700000  0.569500  1.0  0.6931
  C  C222  1  0.679000  0.679000  0.613800  1.0  -0.1025
  C  C223  1  0.200000  0.200000  0.569500  1.0  0.6931
  C  C224  1  0.179000  0.179000  0.613800  1.0  -0.1025
  C  C225  1  0.200000  0.069500  0.700000  1.0  0.6837
  C  C226  1  0.179000  0.113800  0.679000  1.0  -0.1024
  C  C227  1  0.200000  0.569500  0.200000  1.0  0.6837
  C  C228  1  0.179000  0.613800  0.179000  1.0  -0.1024
  C  C229  1  0.800000  0.069500  0.300000  1.0  0.6834
  C  C230  1  0.821000  0.113800  0.321000  1.0  -0.1025
  C  C231  1  0.800000  0.569500  0.800000  1.0  0.6834
  C  C232  1  0.821000  0.613800  0.821000  1.0  -0.1025
  C  C233  1  0.300000  0.569500  0.300000  1.0  0.6834
  C  C234  1  0.321000  0.613800  0.321000  1.0  -0.1025
  C  C235  1  0.800000  0.930500  0.700000  1.0  0.6839
  C  C236  1  0.821000  0.886200  0.679000  1.0  -0.1028
  C  C237  1  0.800000  0.430500  0.200000  1.0  0.6839
  C  C238  1  0.821000  0.386200  0.179000  1.0  -0.1028
  C  C239  1  0.300000  0.930500  0.200000  1.0  0.6839
  C  C240  1  0.321000  0.886200  0.179000  1.0  -0.1028
  C  C241  1  0.200000  0.930500  0.300000  1.0  0.6845
  C  C242  1  0.179000  0.886200  0.321000  1.0  -0.1029
  C  C243  1  0.200000  0.430500  0.800000  1.0  0.6845
  C  C244  1  0.179000  0.386200  0.821000  1.0  -0.1029
  C  C245  1  0.069500  0.300000  0.800000  1.0  0.686
  C  C246  1  0.113800  0.321000  0.821000  1.0  -0.1027
  C  C247  1  0.569500  0.300000  0.300000  1.0  0.686
  C  C248  1  0.613800  0.321000  0.321000  1.0  -0.1027
  C  C249  1  0.069500  0.700000  0.200000  1.0  0.6854
  C  C250  1  0.113800  0.679000  0.179000  1.0  -0.1024
  C  C251  1  0.569500  0.700000  0.700000  1.0  0.6854
  C  C252  1  0.613800  0.679000  0.679000  1.0  -0.1024
  C  C253  1  0.569500  0.200000  0.200000  1.0  0.6854
  C  C254  1  0.613800  0.179000  0.179000  1.0  -0.1024
  C  C255  1  0.930500  0.300000  0.200000  1.0  0.6874
  C  C256  1  0.886200  0.321000  0.179000  1.0  -0.102
  C  C257  1  0.430500  0.300000  0.700000  1.0  0.6874
  C  C258  1  0.386200  0.321000  0.679000  1.0  -0.102
  C  C259  1  0.930500  0.700000  0.800000  1.0  0.687
  C  C260  1  0.886200  0.679000  0.821000  1.0  -0.1021
  C  C261  1  0.930500  0.200000  0.300000  1.0  0.687
  C  C262  1  0.886200  0.179000  0.321000  1.0  -0.1021
  C  C263  1  0.430500  0.700000  0.300000  1.0  0.687
  C  C264  1  0.386200  0.679000  0.321000  1.0  -0.1021
  C  C265  1  0.800000  0.700000  0.930500  1.0  0.6907
  C  C266  1  0.821000  0.679000  0.886200  1.0  -0.1024
  C  C267  1  0.800000  0.200000  0.430500  1.0  0.6907
  C  C268  1  0.821000  0.179000  0.386200  1.0  -0.1024
  C  C269  1  0.200000  0.800000  0.430500  1.0  0.6914
  C  C270  1  0.179000  0.821000  0.386200  1.0  -0.1024
  C  C271  1  0.200000  0.700000  0.069500  1.0  0.6931
  C  C272  1  0.179000  0.679000  0.113800  1.0  -0.1025
  C  C273  1  0.800000  0.300000  0.069500  1.0  0.6937
  C  C274  1  0.821000  0.321000  0.113800  1.0  -0.1026
  C  C275  1  0.800000  0.800000  0.569500  1.0  0.6937
  C  C276  1  0.821000  0.821000  0.613800  1.0  -0.1026
  C  C277  1  0.930500  0.800000  0.700000  1.0  0.6874
  C  C278  1  0.886200  0.821000  0.679000  1.0  -0.102
  C  C279  1  0.430500  0.800000  0.200000  1.0  0.6874
  C  C280  1  0.386200  0.821000  0.179000  1.0  -0.102
  C  C281  1  0.430500  0.200000  0.800000  1.0  0.687
  C  C282  1  0.386200  0.179000  0.821000  1.0  -0.1021
  C  C283  1  0.069500  0.200000  0.700000  1.0  0.6854
  C  C284  1  0.113800  0.179000  0.679000  1.0  -0.1024
  C  C285  1  0.069500  0.800000  0.300000  1.0  0.686
  C  C286  1  0.113800  0.821000  0.321000  1.0  -0.1027
  C  C287  1  0.569500  0.800000  0.800000  1.0  0.686
  C  C288  1  0.613800  0.821000  0.821000  1.0  -0.1027
  C  C289  1  0.700000  0.930500  0.800000  1.0  0.6845
  C  C290  1  0.679000  0.886200  0.821000  1.0  -0.1029
  C  C291  1  0.700000  0.430500  0.300000  1.0  0.6845
  C  C292  1  0.679000  0.386200  0.321000  1.0  -0.1029
  C  C293  1  0.300000  0.430500  0.700000  1.0  0.6839
  C  C294  1  0.321000  0.386200  0.679000  1.0  -0.1028
  C  C295  1  0.700000  0.069500  0.200000  1.0  0.6837
  C  C296  1  0.679000  0.113800  0.179000  1.0  -0.1024
  C  C297  1  0.700000  0.569500  0.700000  1.0  0.6837
  C  C298  1  0.679000  0.613800  0.679000  1.0  -0.1024
  C  C299  1  0.300000  0.069500  0.800000  1.0  0.6834
  C  C300  1  0.321000  0.113800  0.821000  1.0  -0.1025
  C  C301  1  0.700000  0.800000  0.069500  1.0  0.6937
  C  C302  1  0.679000  0.821000  0.113800  1.0  -0.1026
  C  C303  1  0.700000  0.300000  0.569500  1.0  0.6937
  C  C304  1  0.679000  0.321000  0.613800  1.0  -0.1026
  C  C305  1  0.300000  0.700000  0.569500  1.0  0.693
  C  C306  1  0.321000  0.679000  0.613800  1.0  -0.1024
  C  C307  1  0.700000  0.200000  0.930500  1.0  0.6913
  C  C308  1  0.679000  0.179000  0.886200  1.0  -0.1024
  C  C309  1  0.700000  0.700000  0.430500  1.0  0.6913
  C  C310  1  0.679000  0.679000  0.386200  1.0  -0.1024
  C  C311  1  0.300000  0.800000  0.930500  1.0  0.6909
  C  C312  1  0.321000  0.821000  0.886200  1.0  -0.1024
  C  C313  1  0.800000  0.930500  0.300000  1.0  0.6841
  C  C314  1  0.821000  0.886200  0.321000  1.0  -0.1028
  C  C315  1  0.800000  0.430500  0.800000  1.0  0.6841
  C  C316  1  0.821000  0.386200  0.821000  1.0  -0.1028
  C  C317  1  0.200000  0.930500  0.700000  1.0  0.6842
  C  C318  1  0.179000  0.886200  0.679000  1.0  -0.103
  C  C319  1  0.200000  0.569500  0.800000  1.0  0.6839
  C  C320  1  0.179000  0.613800  0.821000  1.0  -0.1025
  C  C321  1  0.800000  0.069500  0.700000  1.0  0.6834
  C  C322  1  0.821000  0.113800  0.679000  1.0  -0.1023
  C  C323  1  0.800000  0.569500  0.200000  1.0  0.6834
  C  C324  1  0.821000  0.613800  0.179000  1.0  -0.1023
  C  C325  1  0.930500  0.700000  0.200000  1.0  0.6872
  C  C326  1  0.886200  0.679000  0.179000  1.0  -0.1022
  C  C327  1  0.430500  0.700000  0.700000  1.0  0.6872
  C  C328  1  0.386200  0.679000  0.679000  1.0  -0.1022
  C  C329  1  0.930500  0.300000  0.800000  1.0  0.6873
  C  C330  1  0.886200  0.321000  0.821000  1.0  -0.1021
  C  C331  1  0.069500  0.700000  0.800000  1.0  0.6856
  C  C332  1  0.113800  0.679000  0.821000  1.0  -0.1026
  C  C333  1  0.569500  0.700000  0.300000  1.0  0.6856
  C  C334  1  0.613800  0.679000  0.321000  1.0  -0.1026
  C  C335  1  0.569500  0.300000  0.700000  1.0  0.6857
  C  C336  1  0.613800  0.321000  0.679000  1.0  -0.1024
  C  C337  1  0.197500  0.365800  0.134200  1.0  0.0147
  C  C338  1  0.697500  0.365800  0.634200  1.0  0.0147
  C  C339  1  0.802500  0.634200  0.134200  1.0  0.0144
  C  C340  1  0.302500  0.634200  0.634200  1.0  0.0144
  C  C341  1  0.302500  0.134200  0.134200  1.0  0.0144
  C  C342  1  0.802500  0.365800  0.865800  1.0  0.0153
  C  C343  1  0.302500  0.365800  0.365800  1.0  0.0153
  C  C344  1  0.197500  0.634200  0.865800  1.0  0.0147
  C  C345  1  0.197500  0.134200  0.365800  1.0  0.0147
  C  C346  1  0.697500  0.634200  0.365800  1.0  0.0147
  C  C347  1  0.134200  0.197500  0.365800  1.0  0.0158
  C  C348  1  0.134200  0.697500  0.865800  1.0  0.0158
  C  C349  1  0.134200  0.802500  0.634200  1.0  0.0146
  C  C350  1  0.134200  0.302500  0.134200  1.0  0.0146
  C  C351  1  0.865800  0.802500  0.365800  1.0  0.0163
  C  C352  1  0.865800  0.302500  0.865800  1.0  0.0163
  C  C353  1  0.365800  0.302500  0.365800  1.0  0.0163
  C  C354  1  0.865800  0.197500  0.634200  1.0  0.0159
  C  C355  1  0.865800  0.697500  0.134200  1.0  0.0159
  C  C356  1  0.365800  0.197500  0.134200  1.0  0.0159
  C  C357  1  0.365800  0.134200  0.197500  1.0  0.0158
  C  C358  1  0.365800  0.634200  0.697500  1.0  0.0158
  C  C359  1  0.634200  0.134200  0.802500  1.0  0.0153
  C  C360  1  0.634200  0.634200  0.302500  1.0  0.0153
  C  C361  1  0.134200  0.134200  0.302500  1.0  0.0153
  C  C362  1  0.365800  0.865800  0.802500  1.0  0.0164
  C  C363  1  0.365800  0.365800  0.302500  1.0  0.0164
  C  C364  1  0.634200  0.865800  0.197500  1.0  0.0153
  C  C365  1  0.634200  0.365800  0.697500  1.0  0.0153
  C  C366  1  0.134200  0.365800  0.197500  1.0  0.0153
  C  C367  1  0.365800  0.197500  0.865800  1.0  0.016
  C  C368  1  0.365800  0.697500  0.365800  1.0  0.016
  C  C369  1  0.634200  0.802500  0.865800  1.0  0.0156
  C  C370  1  0.634200  0.302500  0.365800  1.0  0.0156
  C  C371  1  0.134200  0.802500  0.365800  1.0  0.0156
  C  C372  1  0.365800  0.802500  0.134200  1.0  0.0154
  C  C373  1  0.365800  0.302500  0.634200  1.0  0.0154
  C  C374  1  0.634200  0.197500  0.134200  1.0  0.0155
  C  C375  1  0.634200  0.697500  0.634200  1.0  0.0155
  C  C376  1  0.134200  0.697500  0.134200  1.0  0.0155
  C  C377  1  0.197500  0.134200  0.634200  1.0  0.0143
  C  C378  1  0.697500  0.134200  0.134200  1.0  0.0143
  C  C379  1  0.802500  0.134200  0.365800  1.0  0.0153
  C  C380  1  0.302500  0.134200  0.865800  1.0  0.0153
  C  C381  1  0.802500  0.865800  0.634200  1.0  0.0148
  C  C382  1  0.802500  0.365800  0.134200  1.0  0.0148
  C  C383  1  0.302500  0.865800  0.134200  1.0  0.0148
  C  C384  1  0.197500  0.865800  0.365800  1.0  0.0149
  C  C385  1  0.697500  0.865800  0.865800  1.0  0.0149
  C  C386  1  0.697500  0.365800  0.365800  1.0  0.0149
  C  C387  1  0.134200  0.365800  0.802500  1.0  0.0158
  C  C388  1  0.134200  0.865800  0.302500  1.0  0.0158
  C  C389  1  0.134200  0.634200  0.197500  1.0  0.0153
  C  C390  1  0.134200  0.134200  0.697500  1.0  0.0153
  C  C391  1  0.865800  0.365800  0.197500  1.0  0.0155
  C  C392  1  0.865800  0.865800  0.697500  1.0  0.0155
  C  C393  1  0.365800  0.365800  0.697500  1.0  0.0155
  C  C394  1  0.865800  0.634200  0.802500  1.0  0.0161
  C  C395  1  0.865800  0.134200  0.302500  1.0  0.0161
  C  C396  1  0.365800  0.134200  0.802500  1.0  0.0161
  C  C397  1  0.802500  0.634200  0.865800  1.0  0.0153
  C  C398  1  0.302500  0.634200  0.365800  1.0  0.0153
  C  C399  1  0.197500  0.365800  0.865800  1.0  0.0149
  C  C400  1  0.197500  0.634200  0.134200  1.0  0.0143
  C  C401  1  0.697500  0.634200  0.634200  1.0  0.0143
  C  C402  1  0.302500  0.365800  0.634200  1.0  0.0148
  C  C403  1  0.865800  0.802500  0.634200  1.0  0.0154
  C  C404  1  0.865800  0.302500  0.134200  1.0  0.0154
  C  C405  1  0.865800  0.197500  0.365800  1.0  0.016
  C  C406  1  0.865800  0.697500  0.865800  1.0  0.016
  C  C407  1  0.134200  0.197500  0.634200  1.0  0.0155
  C  C408  1  0.134200  0.302500  0.865800  1.0  0.0156
  C  C409  1  0.634200  0.865800  0.802500  1.0  0.0158
  C  C410  1  0.634200  0.365800  0.302500  1.0  0.0158
  C  C411  1  0.365800  0.865800  0.197500  1.0  0.0155
  C  C412  1  0.634200  0.134200  0.197500  1.0  0.0153
  C  C413  1  0.634200  0.634200  0.697500  1.0  0.0153
  C  C414  1  0.365800  0.634200  0.302500  1.0  0.0161
  C  C415  1  0.634200  0.802500  0.134200  1.0  0.0146
  C  C416  1  0.634200  0.302500  0.634200  1.0  0.0146
  C  C417  1  0.365800  0.697500  0.634200  1.0  0.0159
  C  C418  1  0.634200  0.197500  0.865800  1.0  0.0158
  C  C419  1  0.634200  0.697500  0.365800  1.0  0.0158
  C  C420  1  0.365800  0.802500  0.865800  1.0  0.0163
  C  C421  1  0.802500  0.865800  0.365800  1.0  0.0153
  C  C422  1  0.302500  0.865800  0.865800  1.0  0.0153
  C  C423  1  0.197500  0.865800  0.634200  1.0  0.0147
  C  C424  1  0.697500  0.865800  0.134200  1.0  0.0147
  C  C425  1  0.697500  0.134200  0.865800  1.0  0.0147
  C  C426  1  0.802500  0.134200  0.634200  1.0  0.0144
  C  C427  1  0.865800  0.634200  0.197500  1.0  0.0158
  C  C428  1  0.865800  0.134200  0.697500  1.0  0.0158
  C  C429  1  0.865800  0.365800  0.802500  1.0  0.0164
  C  C430  1  0.865800  0.865800  0.302500  1.0  0.0164
  C  C431  1  0.134200  0.634200  0.802500  1.0  0.0153
  C  C432  1  0.134200  0.865800  0.697500  1.0  0.0153
  O  O433  1  0.182600  0.257300  0.053300  1.0  -0.6155
  O  O434  1  0.182600  0.757300  0.553300  1.0  -0.6162
  O  O435  1  0.682600  0.257300  0.553300  1.0  -0.6162
  O  O436  1  0.682600  0.757300  0.053300  1.0  -0.6158
  O  O437  1  0.817400  0.742700  0.053300  1.0  -0.6137
  O  O438  1  0.817400  0.242700  0.553300  1.0  -0.6137
  O  O439  1  0.317400  0.742700  0.553300  1.0  -0.6137
  O  O440  1  0.317400  0.242700  0.053300  1.0  -0.6137
  O  O441  1  0.817400  0.257300  0.946700  1.0  -0.6148
  O  O442  1  0.817400  0.757300  0.446700  1.0  -0.6148
  O  O443  1  0.317400  0.257300  0.446700  1.0  -0.6145
  O  O444  1  0.317400  0.757300  0.946700  1.0  -0.6148
  O  O445  1  0.182600  0.742700  0.946700  1.0  -0.6161
  O  O446  1  0.182600  0.242700  0.446700  1.0  -0.6156
  O  O447  1  0.682600  0.742700  0.446700  1.0  -0.6156
  O  O448  1  0.682600  0.242700  0.946700  1.0  -0.6161
  O  O449  1  0.053300  0.182600  0.257300  1.0  -0.6129
  O  O450  1  0.053300  0.682600  0.757300  1.0  -0.6129
  O  O451  1  0.553300  0.182600  0.757300  1.0  -0.6129
  O  O452  1  0.553300  0.682600  0.257300  1.0  -0.6132
  O  O453  1  0.053300  0.817400  0.742700  1.0  -0.6133
  O  O454  1  0.053300  0.317400  0.242700  1.0  -0.6128
  O  O455  1  0.553300  0.817400  0.242700  1.0  -0.6128
  O  O456  1  0.553300  0.317400  0.742700  1.0  -0.6133
  O  O457  1  0.946700  0.817400  0.257300  1.0  -0.613
  O  O458  1  0.946700  0.317400  0.757300  1.0  -0.613
  O  O459  1  0.446700  0.817400  0.757300  1.0  -0.613
  O  O460  1  0.446700  0.317400  0.257300  1.0  -0.6125
  O  O461  1  0.946700  0.182600  0.742700  1.0  -0.6137
  O  O462  1  0.946700  0.682600  0.242700  1.0  -0.6139
  O  O463  1  0.446700  0.182600  0.242700  1.0  -0.6139
  O  O464  1  0.446700  0.682600  0.742700  1.0  -0.6137
  O  O465  1  0.257300  0.053300  0.182600  1.0  -0.6128
  O  O466  1  0.257300  0.553300  0.682600  1.0  -0.613
  O  O467  1  0.757300  0.053300  0.682600  1.0  -0.613
  O  O468  1  0.757300  0.553300  0.182600  1.0  -0.613
  O  O469  1  0.742700  0.053300  0.817400  1.0  -0.6127
  O  O470  1  0.742700  0.553300  0.317400  1.0  -0.6127
  O  O471  1  0.242700  0.053300  0.317400  1.0  -0.6127
  O  O472  1  0.242700  0.553300  0.817400  1.0  -0.6126
  O  O473  1  0.257300  0.946700  0.817400  1.0  -0.6141
  O  O474  1  0.257300  0.446700  0.317400  1.0  -0.6138
  O  O475  1  0.757300  0.946700  0.317400  1.0  -0.6141
  O  O476  1  0.757300  0.446700  0.817400  1.0  -0.6141
  O  O477  1  0.742700  0.946700  0.182600  1.0  -0.6119
  O  O478  1  0.742700  0.446700  0.682600  1.0  -0.6119
  O  O479  1  0.242700  0.946700  0.682600  1.0  -0.6119
  O  O480  1  0.242700  0.446700  0.182600  1.0  -0.6119
  O  O481  1  0.257300  0.182600  0.946700  1.0  -0.6156
  O  O482  1  0.257300  0.682600  0.446700  1.0  -0.6156
  O  O483  1  0.757300  0.182600  0.446700  1.0  -0.6153
  O  O484  1  0.757300  0.682600  0.946700  1.0  -0.6153
  O  O485  1  0.742700  0.817400  0.946700  1.0  -0.6126
  O  O486  1  0.742700  0.317400  0.446700  1.0  -0.6126
  O  O487  1  0.242700  0.817400  0.446700  1.0  -0.6126
  O  O488  1  0.242700  0.317400  0.946700  1.0  -0.6126
  O  O489  1  0.257300  0.817400  0.053300  1.0  -0.6144
  O  O490  1  0.257300  0.317400  0.553300  1.0  -0.6144
  O  O491  1  0.757300  0.817400  0.553300  1.0  -0.6144
  O  O492  1  0.757300  0.317400  0.053300  1.0  -0.6144
  O  O493  1  0.742700  0.182600  0.053300  1.0  -0.6135
  O  O494  1  0.742700  0.682600  0.553300  1.0  -0.6132
  O  O495  1  0.242700  0.182600  0.553300  1.0  -0.6132
  O  O496  1  0.242700  0.682600  0.053300  1.0  -0.6132
  O  O497  1  0.182600  0.053300  0.742700  1.0  -0.6121
  O  O498  1  0.182600  0.553300  0.242700  1.0  -0.6121
  O  O499  1  0.682600  0.053300  0.242700  1.0  -0.6124
  O  O500  1  0.682600  0.553300  0.742700  1.0  -0.6121
  O  O501  1  0.817400  0.053300  0.257300  1.0  -0.6114
  O  O502  1  0.817400  0.553300  0.757300  1.0  -0.611
  O  O503  1  0.317400  0.053300  0.757300  1.0  -0.611
  O  O504  1  0.317400  0.553300  0.257300  1.0  -0.6114
  O  O505  1  0.817400  0.946700  0.742700  1.0  -0.6119
  O  O506  1  0.817400  0.446700  0.242700  1.0  -0.6123
  O  O507  1  0.317400  0.946700  0.242700  1.0  -0.612
  O  O508  1  0.317400  0.446700  0.742700  1.0  -0.6119
  O  O509  1  0.182600  0.946700  0.257300  1.0  -0.6134
  O  O510  1  0.182600  0.446700  0.757300  1.0  -0.613
  O  O511  1  0.682600  0.946700  0.757300  1.0  -0.613
  O  O512  1  0.682600  0.446700  0.257300  1.0  -0.6134
  O  O513  1  0.053300  0.257300  0.817400  1.0  -0.6159
  O  O514  1  0.053300  0.757300  0.317400  1.0  -0.6159
  O  O515  1  0.553300  0.257300  0.317400  1.0  -0.6155
  O  O516  1  0.553300  0.757300  0.817400  1.0  -0.6155
  O  O517  1  0.053300  0.742700  0.182600  1.0  -0.6142
  O  O518  1  0.053300  0.242700  0.682600  1.0  -0.614
  O  O519  1  0.553300  0.742700  0.682600  1.0  -0.6139
  O  O520  1  0.553300  0.242700  0.182600  1.0  -0.6139
  O  O521  1  0.946700  0.257300  0.182600  1.0  -0.6135
  O  O522  1  0.946700  0.757300  0.682600  1.0  -0.6132
  O  O523  1  0.446700  0.257300  0.682600  1.0  -0.6132
  O  O524  1  0.446700  0.757300  0.182600  1.0  -0.6132
  O  O525  1  0.946700  0.742700  0.817400  1.0  -0.6138
  O  O526  1  0.946700  0.242700  0.317400  1.0  -0.6138
  O  O527  1  0.446700  0.742700  0.317400  1.0  -0.6138
  O  O528  1  0.446700  0.242700  0.817400  1.0  -0.6142
  O  O529  1  0.817400  0.742700  0.946700  1.0  -0.6141
  O  O530  1  0.817400  0.242700  0.446700  1.0  -0.6143
  O  O531  1  0.317400  0.742700  0.446700  1.0  -0.6141
  O  O532  1  0.317400  0.242700  0.946700  1.0  -0.6141
  O  O533  1  0.182600  0.257300  0.946700  1.0  -0.6156
  O  O534  1  0.182600  0.757300  0.446700  1.0  -0.6156
  O  O535  1  0.682600  0.257300  0.446700  1.0  -0.6156
  O  O536  1  0.682600  0.757300  0.946700  1.0  -0.6156
  O  O537  1  0.182600  0.742700  0.053300  1.0  -0.6153
  O  O538  1  0.182600  0.242700  0.553300  1.0  -0.6153
  O  O539  1  0.682600  0.742700  0.553300  1.0  -0.6158
  O  O540  1  0.682600  0.242700  0.053300  1.0  -0.6153
  O  O541  1  0.817400  0.257300  0.053300  1.0  -0.6148
  O  O542  1  0.817400  0.757300  0.553300  1.0  -0.6146
  O  O543  1  0.317400  0.257300  0.553300  1.0  -0.6146
  O  O544  1  0.317400  0.757300  0.053300  1.0  -0.6146
  O  O545  1  0.946700  0.817400  0.742700  1.0  -0.6131
  O  O546  1  0.946700  0.317400  0.242700  1.0  -0.6127
  O  O547  1  0.446700  0.817400  0.242700  1.0  -0.6132
  O  O548  1  0.446700  0.317400  0.742700  1.0  -0.6131
  O  O549  1  0.946700  0.182600  0.257300  1.0  -0.6126
  O  O550  1  0.946700  0.682600  0.757300  1.0  -0.6126
  O  O551  1  0.446700  0.182600  0.757300  1.0  -0.6126
  O  O552  1  0.446700  0.682600  0.257300  1.0  -0.6126
  O  O553  1  0.053300  0.182600  0.742700  1.0  -0.6134
  O  O554  1  0.053300  0.682600  0.242700  1.0  -0.6135
  O  O555  1  0.553300  0.182600  0.242700  1.0  -0.6135
  O  O556  1  0.553300  0.682600  0.742700  1.0  -0.6138
  O  O557  1  0.053300  0.817400  0.257300  1.0  -0.6133
  O  O558  1  0.053300  0.317400  0.757300  1.0  -0.6133
  O  O559  1  0.553300  0.817400  0.757300  1.0  -0.6133
  O  O560  1  0.553300  0.317400  0.257300  1.0  -0.6129
  O  O561  1  0.742700  0.946700  0.817400  1.0  -0.6127
  O  O562  1  0.742700  0.446700  0.317400  1.0  -0.6127
  O  O563  1  0.242700  0.946700  0.317400  1.0  -0.6127
  O  O564  1  0.242700  0.446700  0.817400  1.0  -0.6126
  O  O565  1  0.257300  0.946700  0.182600  1.0  -0.6131
  O  O566  1  0.257300  0.446700  0.682600  1.0  -0.6127
  O  O567  1  0.757300  0.946700  0.682600  1.0  -0.6131
  O  O568  1  0.757300  0.446700  0.182600  1.0  -0.6131
  O  O569  1  0.742700  0.053300  0.182600  1.0  -0.612
  O  O570  1  0.742700  0.553300  0.682600  1.0  -0.612
  O  O571  1  0.242700  0.053300  0.682600  1.0  -0.6122
  O  O572  1  0.242700  0.553300  0.182600  1.0  -0.6117
  O  O573  1  0.257300  0.053300  0.817400  1.0  -0.6141
  O  O574  1  0.257300  0.553300  0.317400  1.0  -0.6141
  O  O575  1  0.757300  0.053300  0.317400  1.0  -0.6141
  O  O576  1  0.757300  0.553300  0.817400  1.0  -0.6141
  O  O577  1  0.742700  0.817400  0.053300  1.0  -0.6127
  O  O578  1  0.742700  0.317400  0.553300  1.0  -0.6127
  O  O579  1  0.242700  0.817400  0.553300  1.0  -0.6131
  O  O580  1  0.242700  0.317400  0.053300  1.0  -0.6127
  O  O581  1  0.257300  0.182600  0.053300  1.0  -0.6158
  O  O582  1  0.257300  0.682600  0.553300  1.0  -0.6154
  O  O583  1  0.757300  0.182600  0.553300  1.0  -0.6154
  O  O584  1  0.757300  0.682600  0.053300  1.0  -0.6154
  O  O585  1  0.742700  0.182600  0.946700  1.0  -0.6131
  O  O586  1  0.742700  0.682600  0.446700  1.0  -0.6131
  O  O587  1  0.242700  0.182600  0.446700  1.0  -0.6131
  O  O588  1  0.242700  0.682600  0.946700  1.0  -0.6131
  O  O589  1  0.257300  0.817400  0.946700  1.0  -0.6147
  O  O590  1  0.257300  0.317400  0.446700  1.0  -0.6145
  O  O591  1  0.757300  0.817400  0.446700  1.0  -0.6143
  O  O592  1  0.757300  0.317400  0.946700  1.0  -0.6143
  O  O593  1  0.817400  0.946700  0.257300  1.0  -0.6115
  O  O594  1  0.817400  0.446700  0.757300  1.0  -0.6111
  O  O595  1  0.317400  0.946700  0.757300  1.0  -0.6111
  O  O596  1  0.317400  0.446700  0.257300  1.0  -0.6111
  O  O597  1  0.182600  0.946700  0.742700  1.0  -0.6119
  O  O598  1  0.182600  0.446700  0.242700  1.0  -0.6119
  O  O599  1  0.682600  0.946700  0.242700  1.0  -0.6119
  O  O600  1  0.682600  0.446700  0.742700  1.0  -0.6119
  O  O601  1  0.182600  0.053300  0.257300  1.0  -0.6127
  O  O602  1  0.182600  0.553300  0.757300  1.0  -0.6127
  O  O603  1  0.682600  0.053300  0.757300  1.0  -0.6127
  O  O604  1  0.682600  0.553300  0.257300  1.0  -0.6127
  O  O605  1  0.817400  0.053300  0.742700  1.0  -0.6122
  O  O606  1  0.817400  0.553300  0.242700  1.0  -0.6121
  O  O607  1  0.317400  0.053300  0.242700  1.0  -0.6124
  O  O608  1  0.317400  0.553300  0.742700  1.0  -0.6122
  O  O609  1  0.946700  0.742700  0.182600  1.0  -0.6136
  O  O610  1  0.946700  0.242700  0.682600  1.0  -0.6136
  O  O611  1  0.446700  0.742700  0.682600  1.0  -0.6136
  O  O612  1  0.446700  0.242700  0.182600  1.0  -0.614
  O  O613  1  0.946700  0.257300  0.817400  1.0  -0.6156
  O  O614  1  0.946700  0.757300  0.317400  1.0  -0.6153
  O  O615  1  0.446700  0.257300  0.317400  1.0  -0.6155
  O  O616  1  0.446700  0.757300  0.817400  1.0  -0.6153
  O  O617  1  0.053300  0.742700  0.817400  1.0  -0.6145
  O  O618  1  0.053300  0.242700  0.317400  1.0  -0.6145
  O  O619  1  0.553300  0.742700  0.317400  1.0  -0.6142
  O  O620  1  0.553300  0.242700  0.817400  1.0  -0.6147
  O  O621  1  0.053300  0.257300  0.182600  1.0  -0.6138
  O  O622  1  0.053300  0.757300  0.682600  1.0  -0.6142
  O  O623  1  0.553300  0.257300  0.682600  1.0  -0.6138
  O  O624  1  0.553300  0.757300  0.182600  1.0  -0.6138
