# generated using pymatgen
data_Tb(CO)6
_symmetry_space_group_name_H-M   'P 1'
_cell_length_a   8.43210000
_cell_length_b   13.18710000
_cell_length_c   9.55050000
_cell_angle_alpha   90.00000000
_cell_angle_beta   94.38500000
_cell_angle_gamma   90.00000000
_symmetry_Int_Tables_number   1
_chemical_formula_structural   Tb(CO)6
_chemical_formula_sum   'Tb4 C24 O24'
_cell_volume   1058.85874338
_cell_formula_units_Z   4
loop_
 _symmetry_equiv_pos_site_id
 _symmetry_equiv_pos_as_xyz
  1  'x, y, z'
loop_
 _atom_site_type_symbol
 _atom_site_label
 _atom_site_symmetry_multiplicity
 _atom_site_fract_x
 _atom_site_fract_y
 _atom_site_fract_z
 _atom_site_occupancy
 _atom_site_charge
  Tb  Tb1  1  0.538530  0.270110  0.489420  1.0  2.1138
  Tb  Tb2  1  0.961470  0.770110  0.010580  1.0  2.1143
  Tb  Tb3  1  0.461470  0.729890  0.510580  1.0  2.1146
  Tb  Tb4  1  0.038530  0.229890  0.989420  1.0  2.1144
  C  C5  1  0.535200  0.388700  0.742300  1.0  0.6805
  C  C6  1  0.520800  0.450800  0.872700  1.0  -0.0978
  C  C7  1  0.618100  0.424700  0.994400  1.0  -0.1074
  C  C8  1  0.404700  0.526800  0.876900  1.0  -0.1284
  C  C9  1  0.752600  0.351400  0.984800  1.0  0.6753
  C  C10  1  0.295700  0.552200  0.745400  1.0  0.7492
  C  C11  1  0.964800  0.888700  0.757700  1.0  0.6808
  C  C12  1  0.979200  0.950800  0.627300  1.0  -0.0982
  C  C13  1  0.881900  0.924700  0.505600  1.0  -0.1069
  C  C14  1  0.095300  0.026800  0.623100  1.0  -0.1283
  C  C15  1  0.747400  0.851400  0.515200  1.0  0.6747
  C  C16  1  0.204300  0.052200  0.754600  1.0  0.7484
  C  C17  1  0.464800  0.611300  0.257700  1.0  0.6806
  C  C18  1  0.479200  0.549200  0.127300  1.0  -0.0981
  C  C19  1  0.381900  0.575300  0.005600  1.0  -0.107
  C  C20  1  0.595300  0.473200  0.123100  1.0  -0.1284
  C  C21  1  0.247400  0.648600  0.015200  1.0  0.6747
  C  C22  1  0.704300  0.447800  0.254600  1.0  0.7482
  C  C23  1  0.035200  0.111300  0.242300  1.0  0.681
  C  C24  1  0.020800  0.049200  0.372700  1.0  -0.0977
  C  C25  1  0.118100  0.075300  0.494400  1.0  -0.1076
  C  C26  1  0.904700  0.973200  0.376900  1.0  -0.1287
  C  C27  1  0.252600  0.148600  0.484800  1.0  0.6764
  C  C28  1  0.795700  0.947800  0.245400  1.0  0.7491
  O  O29  1  0.543500  0.432200  0.622900  1.0  -0.6232
  O  O30  1  0.533900  0.292700  0.750400  1.0  -0.6338
  O  O31  1  0.783200  0.285700  0.081400  1.0  -0.6562
  O  O32  1  0.838600  0.357500  0.882700  1.0  -0.6805
  O  O33  1  0.344400  0.613400  0.657100  1.0  -0.7532
  O  O34  1  0.158700  0.513000  0.738500  1.0  -0.5406
  O  O35  1  0.956500  0.932200  0.877100  1.0  -0.6227
  O  O36  1  0.966100  0.792700  0.749600  1.0  -0.6335
  O  O37  1  0.716800  0.785700  0.418600  1.0  -0.6569
  O  O38  1  0.661400  0.857500  0.617300  1.0  -0.6799
  O  O39  1  0.155600  0.113400  0.842900  1.0  -0.7508
  O  O40  1  0.341300  0.013000  0.761500  1.0  -0.5432
  O  O41  1  0.456500  0.567800  0.377100  1.0  -0.6224
  O  O42  1  0.466100  0.707300  0.249600  1.0  -0.6325
  O  O43  1  0.216800  0.714300  0.918600  1.0  -0.6546
  O  O44  1  0.161400  0.642500  0.117300  1.0  -0.6797
  O  O45  1  0.655600  0.386600  0.342900  1.0  -0.7505
  O  O46  1  0.841300  0.487000  0.261500  1.0  -0.5438
  O  O47  1  0.043500  0.067800  0.122900  1.0  -0.6235
  O  O48  1  0.033900  0.207300  0.250400  1.0  -0.6326
  O  O49  1  0.283200  0.214300  0.581400  1.0  -0.6536
  O  O50  1  0.338600  0.142500  0.382700  1.0  -0.6808
  O  O51  1  0.844400  0.886600  0.157100  1.0  -0.7524
  O  O52  1  0.658700  0.987000  0.238500  1.0  -0.5406
