# generated using pymatgen
data_Tb(CO)6
_symmetry_space_group_name_H-M   'P 1'
_cell_length_a   8.45480000
_cell_length_b   13.10470000
_cell_length_c   9.48850000
_cell_angle_alpha   90.00000000
_cell_angle_beta   94.43900000
_cell_angle_gamma   90.00000000
_symmetry_Int_Tables_number   1
_chemical_formula_structural   Tb(CO)6
_chemical_formula_sum   'Tb4 C24 O24'
_cell_volume   1048.14960031
_cell_formula_units_Z   4
loop_
 _symmetry_equiv_pos_site_id
 _symmetry_equiv_pos_as_xyz
  1  'x, y, z'
loop_
 _atom_site_type_symbol
 _atom_site_label
 _atom_site_symmetry_multiplicity
 _atom_site_fract_x
 _atom_site_fract_y
 _atom_site_fract_z
 _atom_site_occupancy
 _atom_site_charge
  Tb  Tb1  1  0.038150  0.769030  0.491440  1.0  2.1317
  Tb  Tb2  1  0.461850  0.269020  0.008560  1.0  2.1325
  Tb  Tb3  1  0.961850  0.230980  0.508560  1.0  2.1327
  Tb  Tb4  1  0.538150  0.730980  0.991440  1.0  2.1318
  C  C5  1  0.752400  0.648300  0.488300  1.0  0.6875
  C  C6  1  0.524100  0.549200  0.374300  1.0  -0.0858
  C  C7  1  0.617000  0.574900  0.495900  1.0  -0.0988
  C  C8  1  0.592500  0.526600  0.624400  1.0  -0.1206
  C  C9  1  0.699800  0.552700  0.756800  1.0  0.7171
  C  C10  1  0.539000  0.610500  0.242000  1.0  0.6799
  C  C11  1  0.747600  0.148300  0.011700  1.0  0.6862
  C  C12  1  0.975900  0.049200  0.125700  1.0  -0.0858
  C  C13  1  0.883000  0.074900  0.004100  1.0  -0.0991
  C  C14  1  0.907500  0.026600  0.875600  1.0  -0.1198
  C  C15  1  0.800200  0.052700  0.743200  1.0  0.7153
  C  C16  1  0.961000  0.110500  0.258000  1.0  0.6807
  C  C17  1  0.247600  0.351700  0.511700  1.0  0.6858
  C  C18  1  0.475900  0.450800  0.625700  1.0  -0.0853
  C  C19  1  0.383000  0.425100  0.504100  1.0  -0.0992
  C  C20  1  0.407500  0.473400  0.375600  1.0  -0.1196
  C  C21  1  0.300200  0.447300  0.243200  1.0  0.7155
  C  C22  1  0.461000  0.389500  0.758000  1.0  0.6807
  C  C23  1  0.252400  0.851700  0.988300  1.0  0.6864
  C  C24  1  0.024100  0.950800  0.874300  1.0  -0.0855
  C  C25  1  0.117000  0.925100  0.995900  1.0  -0.0987
  C  C26  1  0.092500  0.973400  0.124400  1.0  -0.1205
  C  C27  1  0.199800  0.947300  0.256800  1.0  0.7174
  C  C28  1  0.039000  0.889500  0.742000  1.0  0.6798
  O  O29  1  0.840500  0.640400  0.386000  1.0  -0.7062
  O  O30  1  0.782800  0.712800  0.583400  1.0  -0.621
  O  O31  1  0.650000  0.613900  0.842200  1.0  -0.755
  O  O32  1  0.834300  0.511100  0.766800  1.0  -0.5402
  O  O33  1  0.549200  0.567900  0.125500  1.0  -0.6265
  O  O34  1  0.535400  0.706200  0.250500  1.0  -0.6606
  O  O35  1  0.659500  0.140400  0.114000  1.0  -0.7051
  O  O36  1  0.717200  0.212800  0.916600  1.0  -0.6207
  O  O37  1  0.850000  0.113900  0.657800  1.0  -0.7581
  O  O38  1  0.665700  0.011100  0.733200  1.0  -0.5409
  O  O39  1  0.950800  0.067900  0.374500  1.0  -0.6261
  O  O40  1  0.964600  0.206200  0.249500  1.0  -0.6602
  O  O41  1  0.159500  0.359600  0.614000  1.0  -0.7055
  O  O42  1  0.217200  0.287200  0.416600  1.0  -0.6214
  O  O43  1  0.350000  0.386100  0.157800  1.0  -0.7578
  O  O44  1  0.165700  0.488900  0.233200  1.0  -0.5404
  O  O45  1  0.450800  0.432100  0.874500  1.0  -0.6258
  O  O46  1  0.464600  0.293800  0.749500  1.0  -0.6618
  O  O47  1  0.340500  0.859600  0.886000  1.0  -0.706
  O  O48  1  0.282800  0.787200  0.083400  1.0  -0.6203
  O  O49  1  0.150000  0.886100  0.342200  1.0  -0.7547
  O  O50  1  0.334300  0.988900  0.266800  1.0  -0.5403
  O  O51  1  0.049200  0.932100  0.625500  1.0  -0.6257
  O  O52  1  0.035400  0.793800  0.750500  1.0  -0.6618
