# generated using pymatgen
data_ZnMoH18C14(N2O)2
_symmetry_space_group_name_H-M   'P 1'
_cell_length_a   13.97100000
_cell_length_b   12.84100000
_cell_length_c   7.13700000
_cell_angle_alpha   90.00000000
_cell_angle_beta   90.74000000
_cell_angle_gamma   90.00000000
_symmetry_Int_Tables_number   1
_chemical_formula_structural   ZnMoH18C14(N2O)2
_chemical_formula_sum   'Zn2 Mo2 H36 C28 N8 O4'
_cell_volume   1280.28250928
_cell_formula_units_Z   2
loop_
 _symmetry_equiv_pos_site_id
 _symmetry_equiv_pos_as_xyz
  1  'x, y, z'
loop_
 _atom_site_type_symbol
 _atom_site_label
 _atom_site_symmetry_multiplicity
 _atom_site_fract_x
 _atom_site_fract_y
 _atom_site_fract_z
 _atom_site_occupancy
 _atom_site_charge
  Zn  Zn1  1  0.000000  0.428320  0.000000  1.0  0.8812
  Zn  Zn2  1  0.500000  0.928320  0.000000  1.0  0.8812
  Mo  Mo3  1  0.000000  0.508680  0.500000  1.0  0.5451
  Mo  Mo4  1  0.500000  0.008680  0.500000  1.0  0.5451
  H  H5  1  0.113800  0.297400  0.712600  1.0  0.0624
  H  H6  1  0.133200  0.294700  0.244000  1.0  0.0716
  H  H7  1  0.223400  0.135800  0.221700  1.0  0.0971
  H  H8  1  0.207500  0.157500  0.672500  1.0  0.1034
  H  H9  1  0.271900  0.984400  0.986500  1.0  0.0966
  H  H10  1  0.310200  0.026100  0.795000  1.0  0.0929
  H  H11  1  0.419400  0.210300  0.033500  1.0  0.0674
  H  H12  1  0.445900  0.163300  0.838800  1.0  0.0715
  H  H13  1  0.422600  0.016800  0.092100  1.0  0.1732
  H  H14  1  0.613800  0.797400  0.712600  1.0  0.0624
  H  H15  1  0.633200  0.794700  0.244000  1.0  0.0716
  H  H16  1  0.723400  0.635800  0.221700  1.0  0.0971
  H  H17  1  0.707500  0.657500  0.672500  1.0  0.1034
  H  H18  1  0.771900  0.484400  0.986500  1.0  0.0966
  H  H19  1  0.810200  0.526100  0.795000  1.0  0.0929
  H  H20  1  0.919400  0.710300  0.033500  1.0  0.0674
  H  H21  1  0.945900  0.663300  0.838800  1.0  0.0715
  H  H22  1  0.922600  0.516800  0.092100  1.0  0.1732
  H  H23  1  0.886200  0.297400  0.287400  1.0  0.0617
  H  H24  1  0.866800  0.294700  0.756000  1.0  0.072
  H  H25  1  0.776600  0.135800  0.778300  1.0  0.0961
  H  H26  1  0.792500  0.157500  0.327500  1.0  0.103
  H  H27  1  0.728100  0.984400  0.013500  1.0  0.0975
  H  H28  1  0.689800  0.026100  0.205000  1.0  0.0923
  H  H29  1  0.580600  0.210300  0.966500  1.0  0.0693
  H  H30  1  0.554100  0.163300  0.161200  1.0  0.0689
  H  H31  1  0.577400  0.016800  0.907900  1.0  0.1729
  H  H32  1  0.386200  0.797400  0.287400  1.0  0.0617
  H  H33  1  0.366800  0.794700  0.756000  1.0  0.072
  H  H34  1  0.276600  0.635800  0.778300  1.0  0.0961
  H  H35  1  0.292500  0.657500  0.327500  1.0  0.103
  H  H36  1  0.228100  0.484400  0.013500  1.0  0.0975
  H  H37  1  0.189800  0.526100  0.205000  1.0  0.0923
  H  H38  1  0.080600  0.710300  0.966500  1.0  0.0693
  H  H39  1  0.054100  0.663300  0.161200  1.0  0.0689
  H  H40  1  0.077400  0.516800  0.907900  1.0  0.1729
  C  C41  1  0.136700  0.265500  0.821000  1.0  0.1562
  C  C42  1  0.144600  0.265600  0.127000  1.0  0.1011
  C  C43  1  0.205500  0.172600  0.115000  1.0  -0.1436
  C  C44  1  0.195700  0.183000  0.792000  1.0  -0.1857
  C  C45  1  0.235100  0.141700  0.942000  1.0  0.0496
  C  C46  1  0.302200  0.043300  0.926000  1.0  -0.1376
  C  C47  1  0.450300  0.151800  0.973000  1.0  0.0331
  C  C48  1  0.636700  0.765500  0.821000  1.0  0.1562
  C  C49  1  0.644600  0.765600  0.127000  1.0  0.1011
  C  C50  1  0.705500  0.672600  0.115000  1.0  -0.1436
  C  C51  1  0.695700  0.683000  0.792000  1.0  -0.1857
  C  C52  1  0.735100  0.641700  0.942000  1.0  0.0496
  C  C53  1  0.802200  0.543300  0.926000  1.0  -0.1376
  C  C54  1  0.950300  0.651800  0.973000  1.0  0.0331
  C  C55  1  0.863300  0.265500  0.179000  1.0  0.1559
  C  C56  1  0.855400  0.265600  0.873000  1.0  0.1025
  C  C57  1  0.794500  0.172600  0.885000  1.0  -0.1418
  C  C58  1  0.804300  0.183000  0.208000  1.0  -0.1853
  C  C59  1  0.764900  0.141700  0.058000  1.0  0.0466
  C  C60  1  0.697800  0.043300  0.074000  1.0  -0.1349
  C  C61  1  0.549700  0.151800  0.027000  1.0  0.0327
  C  C62  1  0.363300  0.765500  0.179000  1.0  0.1559
  C  C63  1  0.355400  0.765600  0.873000  1.0  0.1025
  C  C64  1  0.294500  0.672600  0.885000  1.0  -0.1418
  C  C65  1  0.304300  0.683000  0.208000  1.0  -0.1853
  C  C66  1  0.264900  0.641700  0.058000  1.0  0.0466
  C  C67  1  0.197800  0.543300  0.074000  1.0  -0.1349
  C  C68  1  0.049700  0.651800  0.027000  1.0  0.0327
  N  N69  1  0.106300  0.308000  0.979400  1.0  -0.3511
  N  N70  1  0.398900  0.061700  0.015200  1.0  -0.4047
  N  N71  1  0.606300  0.808000  0.979400  1.0  -0.3511
  N  N72  1  0.898900  0.561700  0.015200  1.0  -0.4047
  N  N73  1  0.893700  0.308000  0.020600  1.0  -0.3486
  N  N74  1  0.601100  0.061700  0.984800  1.0  -0.4016
  N  N75  1  0.393700  0.808000  0.020600  1.0  -0.3486
  N  N76  1  0.101100  0.561700  0.984800  1.0  -0.4016
  O  O77  1  0.017200  0.430400  0.299200  1.0  -0.6703
  O  O78  1  0.517200  0.930400  0.299200  1.0  -0.6703
  O  O79  1  0.982800  0.430400  0.700800  1.0  -0.6689
  O  O80  1  0.482800  0.930400  0.700800  1.0  -0.6689
