# generated using pymatgen
data_ZnMoH18C14(N2O)2
_symmetry_space_group_name_H-M   'P 1'
_cell_length_a   13.90100000
_cell_length_b   12.71300000
_cell_length_c   7.07000000
_cell_angle_alpha   90.00000000
_cell_angle_beta   91.13900000
_cell_angle_gamma   90.00000000
_symmetry_Int_Tables_number   1
_chemical_formula_structural   ZnMoH18C14(N2O)2
_chemical_formula_sum   'Zn2 Mo2 H36 C28 N8 O4'
_cell_volume   1249.18765816
_cell_formula_units_Z   2
loop_
 _symmetry_equiv_pos_site_id
 _symmetry_equiv_pos_as_xyz
  1  'x, y, z'
loop_
 _atom_site_type_symbol
 _atom_site_label
 _atom_site_symmetry_multiplicity
 _atom_site_fract_x
 _atom_site_fract_y
 _atom_site_fract_z
 _atom_site_occupancy
 _atom_site_charge
  Zn  Zn1  1  0.000000  0.081250  0.500000  1.0  0.7407
  Zn  Zn2  1  0.500000  0.581250  0.500000  1.0  0.7407
  Mo  Mo3  1  0.000000  0.000720  0.000000  1.0  0.5049
  Mo  Mo4  1  0.500000  0.500720  0.000000  1.0  0.5049
  H  H5  1  0.814200  0.980200  0.296700  1.0  0.0855
  H  H6  1  0.774800  0.026400  0.485100  1.0  0.0881
  H  H7  1  0.946300  0.846900  0.328600  1.0  0.0657
  H  H8  1  0.915300  0.793200  0.517700  1.0  0.0558
  H  H9  1  0.731600  0.871000  0.725000  1.0  0.0988
  H  H10  1  0.708200  0.854300  0.171600  1.0  0.0952
  H  H11  1  0.614300  0.705500  0.201100  1.0  0.0641
  H  H12  1  0.631600  0.722200  0.744700  1.0  0.0672
  H  H13  1  0.886000  0.943000  0.645100  1.0  0.2241
  H  H14  1  0.314200  0.480200  0.296700  1.0  0.0855
  H  H15  1  0.274800  0.526400  0.485100  1.0  0.0881
  H  H16  1  0.446300  0.346900  0.328600  1.0  0.0657
  H  H17  1  0.415300  0.293200  0.517700  1.0  0.0558
  H  H18  1  0.231600  0.371000  0.725000  1.0  0.0988
  H  H19  1  0.208200  0.354300  0.171600  1.0  0.0952
  H  H20  1  0.114300  0.205500  0.201100  1.0  0.0641
  H  H21  1  0.131600  0.222200  0.744700  1.0  0.0672
  H  H22  1  0.386000  0.443000  0.645100  1.0  0.2241
  H  H23  1  0.185800  0.980200  0.703300  1.0  0.0862
  H  H24  1  0.225200  0.026400  0.514900  1.0  0.0879
  H  H25  1  0.053700  0.846900  0.671400  1.0  0.065
  H  H26  1  0.084700  0.793200  0.482300  1.0  0.0546
  H  H27  1  0.268400  0.871000  0.275000  1.0  0.0991
  H  H28  1  0.291800  0.854300  0.828400  1.0  0.0949
  H  H29  1  0.385700  0.705500  0.798900  1.0  0.0634
  H  H30  1  0.368400  0.722200  0.255300  1.0  0.0686
  H  H31  1  0.114000  0.943000  0.354900  1.0  0.2223
  H  H32  1  0.685800  0.480200  0.703300  1.0  0.0862
  H  H33  1  0.725200  0.526400  0.514900  1.0  0.0879
  H  H34  1  0.553700  0.346900  0.671400  1.0  0.065
  H  H35  1  0.584700  0.293200  0.482300  1.0  0.0546
  H  H36  1  0.768400  0.371000  0.275000  1.0  0.0991
  H  H37  1  0.791800  0.354300  0.828400  1.0  0.0949
  H  H38  1  0.885700  0.205500  0.798900  1.0  0.0634
  H  H39  1  0.868400  0.222200  0.255300  1.0  0.0686
  H  H40  1  0.614000  0.443000  0.354900  1.0  0.2223
  C  C41  1  0.804900  0.965200  0.429500  1.0  -0.046
  C  C42  1  0.736500  0.872500  0.444800  1.0  0.0967
  C  C43  1  0.948200  0.853500  0.465300  1.0  -0.0505
  C  C44  1  0.709400  0.837800  0.615300  1.0  -0.2148
  C  C45  1  0.696100  0.827500  0.291200  1.0  -0.1802
  C  C46  1  0.635500  0.740000  0.310300  1.0  0.1597
  C  C47  1  0.646100  0.749200  0.626300  1.0  0.1394
  C  C48  1  0.304900  0.465200  0.429500  1.0  -0.046
  C  C49  1  0.236500  0.372500  0.444800  1.0  0.0967
  C  C50  1  0.448200  0.353500  0.465300  1.0  -0.0505
  C  C51  1  0.209400  0.337800  0.615300  1.0  -0.2148
  C  C52  1  0.196100  0.327500  0.291200  1.0  -0.1802
  C  C53  1  0.135500  0.240000  0.310300  1.0  0.1597
  C  C54  1  0.146100  0.249200  0.626300  1.0  0.1394
  C  C55  1  0.195100  0.965200  0.570500  1.0  -0.0442
  C  C56  1  0.263500  0.872500  0.555200  1.0  0.0996
  C  C57  1  0.051800  0.853500  0.534700  1.0  -0.0508
  C  C58  1  0.290600  0.837800  0.384700  1.0  -0.2161
  C  C59  1  0.303900  0.827500  0.708800  1.0  -0.1804
  C  C60  1  0.364500  0.740000  0.689700  1.0  0.1602
  C  C61  1  0.353900  0.749200  0.373700  1.0  0.1401
  C  C62  1  0.695100  0.465200  0.570500  1.0  -0.0442
  C  C63  1  0.763500  0.372500  0.555200  1.0  0.0996
  C  C64  1  0.551800  0.353500  0.534700  1.0  -0.0508
  C  C65  1  0.790600  0.337800  0.384700  1.0  -0.2161
  C  C66  1  0.803900  0.327500  0.708800  1.0  -0.1804
  C  C67  1  0.864500  0.240000  0.689700  1.0  0.1602
  C  C68  1  0.853900  0.249200  0.373700  1.0  0.1401
  N  N69  1  0.897800  0.950100  0.519600  1.0  -0.4028
  N  N70  1  0.607400  0.704300  0.473500  1.0  -0.3351
  N  N71  1  0.397800  0.450100  0.519600  1.0  -0.4028
  N  N72  1  0.107400  0.204300  0.473500  1.0  -0.3351
  N  N73  1  0.102200  0.950100  0.480400  1.0  -0.4022
  N  N74  1  0.392600  0.704300  0.526500  1.0  -0.334
  N  N75  1  0.602200  0.450100  0.480400  1.0  -0.4022
  N  N76  1  0.892600  0.204300  0.526500  1.0  -0.334
  O  O77  1  0.978700  0.079800  0.201500  1.0  -0.6347
  O  O78  1  0.478700  0.579800  0.201500  1.0  -0.6347
  O  O79  1  0.021300  0.079800  0.798500  1.0  -0.6362
  O  O80  1  0.521300  0.579800  0.798500  1.0  -0.6362
