# generated using pymatgen
data_ZnCrH18C14(N2O)2
_symmetry_space_group_name_H-M   'P 1'
_cell_length_a   13.85000000
_cell_length_b   12.77000000
_cell_length_c   6.93900000
_cell_angle_alpha   90.00000000
_cell_angle_beta   91.45000000
_cell_angle_gamma   90.00000000
_symmetry_Int_Tables_number   1
_chemical_formula_structural   ZnCrH18C14(N2O)2
_chemical_formula_sum   'Zn2 Cr2 H36 C28 N8 O4'
_cell_volume   1226.86978127
_cell_formula_units_Z   2
loop_
 _symmetry_equiv_pos_site_id
 _symmetry_equiv_pos_as_xyz
  1  'x, y, z'
loop_
 _atom_site_type_symbol
 _atom_site_label
 _atom_site_symmetry_multiplicity
 _atom_site_fract_x
 _atom_site_fract_y
 _atom_site_fract_z
 _atom_site_occupancy
 _atom_site_charge
  Zn  Zn1  1  0.000000  0.884970  0.500000  1.0  0.7175
  Zn  Zn2  1  0.500000  0.384970  0.500000  1.0  0.7175
  Cr  Cr3  1  0.000000  0.809640  0.000000  1.0  0.8603
  Cr  Cr4  1  0.500000  0.309640  0.000000  1.0  0.8603
  H  H5  1  0.945600  0.655000  0.322800  1.0  0.068
  H  H6  1  0.913900  0.598400  0.512000  1.0  0.0636
  H  H7  1  0.814500  0.783700  0.287000  1.0  0.0847
  H  H8  1  0.772700  0.833000  0.473900  1.0  0.1019
  H  H9  1  0.712700  0.651300  0.158600  1.0  0.0896
  H  H10  1  0.614300  0.508100  0.191800  1.0  0.0627
  H  H11  1  0.630900  0.528600  0.744600  1.0  0.054
  H  H12  1  0.726900  0.675900  0.726400  1.0  0.09
  H  H13  1  0.885100  0.747900  0.651200  1.0  0.2229
  H  H14  1  0.445600  0.155000  0.322800  1.0  0.068
  H  H15  1  0.413900  0.098400  0.512000  1.0  0.0636
  H  H16  1  0.314500  0.283700  0.287000  1.0  0.0847
  H  H17  1  0.272700  0.333000  0.473900  1.0  0.1019
  H  H18  1  0.212700  0.151300  0.158600  1.0  0.0896
  H  H19  1  0.114300  0.008100  0.191800  1.0  0.0627
  H  H20  1  0.130900  0.028600  0.744600  1.0  0.054
  H  H21  1  0.226900  0.175900  0.726400  1.0  0.09
  H  H22  1  0.385100  0.247900  0.651200  1.0  0.2229
  H  H23  1  0.054400  0.655000  0.677200  1.0  0.0678
  H  H24  1  0.086100  0.598400  0.488000  1.0  0.0624
  H  H25  1  0.185500  0.783700  0.713000  1.0  0.0855
  H  H26  1  0.227300  0.833000  0.526100  1.0  0.1017
  H  H27  1  0.287300  0.651300  0.841400  1.0  0.0896
  H  H28  1  0.385700  0.508100  0.808200  1.0  0.0621
  H  H29  1  0.369100  0.528600  0.255400  1.0  0.0549
  H  H30  1  0.273100  0.675900  0.273600  1.0  0.0903
  H  H31  1  0.114900  0.747900  0.348800  1.0  0.2252
  H  H32  1  0.554400  0.155000  0.677200  1.0  0.0678
  H  H33  1  0.586100  0.098400  0.488000  1.0  0.0624
  H  H34  1  0.685500  0.283700  0.713000  1.0  0.0855
  H  H35  1  0.727300  0.333000  0.526100  1.0  0.1017
  H  H36  1  0.787300  0.151300  0.841400  1.0  0.0896
  H  H37  1  0.885700  0.008100  0.808200  1.0  0.0621
  H  H38  1  0.869100  0.028600  0.255400  1.0  0.0549
  H  H39  1  0.773100  0.175900  0.273600  1.0  0.0903
  H  H40  1  0.614900  0.247900  0.348800  1.0  0.2252
  C  C41  1  0.947200  0.659200  0.462400  1.0  -0.0745
  C  C42  1  0.803200  0.771000  0.422400  1.0  -0.0663
  C  C43  1  0.735100  0.680200  0.439000  1.0  0.1048
  C  C44  1  0.697400  0.628700  0.281600  1.0  -0.2384
  C  C45  1  0.636200  0.542700  0.302600  1.0  0.1565
  C  C46  1  0.645200  0.554700  0.623400  1.0  0.1581
  C  C47  1  0.706100  0.642800  0.613400  1.0  -0.214
  C  C48  1  0.447200  0.159200  0.462400  1.0  -0.0745
  C  C49  1  0.303200  0.271000  0.422400  1.0  -0.0663
  C  C50  1  0.235100  0.180200  0.439000  1.0  0.1048
  C  C51  1  0.197400  0.128700  0.281600  1.0  -0.2384
  C  C52  1  0.136200  0.042700  0.302600  1.0  0.1565
  C  C53  1  0.145200  0.054700  0.623400  1.0  0.1581
  C  C54  1  0.206100  0.142800  0.613400  1.0  -0.214
  C  C55  1  0.052800  0.659200  0.537600  1.0  -0.0746
  C  C56  1  0.196800  0.771000  0.577600  1.0  -0.066
  C  C57  1  0.264900  0.680200  0.561000  1.0  0.1054
  C  C58  1  0.302600  0.628700  0.718400  1.0  -0.2394
  C  C59  1  0.363800  0.542700  0.697400  1.0  0.1572
  C  C60  1  0.354800  0.554700  0.376600  1.0  0.1581
  C  C61  1  0.293900  0.642800  0.386600  1.0  -0.2165
  C  C62  1  0.552800  0.159200  0.537600  1.0  -0.0746
  C  C63  1  0.696800  0.271000  0.577600  1.0  -0.066
  C  C64  1  0.764900  0.180200  0.561000  1.0  0.1054
  C  C65  1  0.802600  0.128700  0.718400  1.0  -0.2394
  C  C66  1  0.863800  0.042700  0.697400  1.0  0.1572
  C  C67  1  0.854800  0.054700  0.376600  1.0  0.1581
  C  C68  1  0.793900  0.142800  0.386600  1.0  -0.2165
  N  N69  1  0.897400  0.755500  0.523700  1.0  -0.3992
  N  N70  1  0.607400  0.507400  0.472000  1.0  -0.3423
  N  N71  1  0.397400  0.255500  0.523700  1.0  -0.3992
  N  N72  1  0.107400  0.007400  0.472000  1.0  -0.3423
  N  N73  1  0.102600  0.755500  0.476300  1.0  -0.399
  N  N74  1  0.392600  0.507400  0.528000  1.0  -0.3423
  N  N75  1  0.602600  0.255500  0.476300  1.0  -0.399
  N  N76  1  0.892600  0.007400  0.528000  1.0  -0.3423
  O  O77  1  0.977500  0.883300  0.189800  1.0  -0.7119
  O  O78  1  0.477500  0.383300  0.189800  1.0  -0.7119
  O  O79  1  0.022500  0.883300  0.810200  1.0  -0.7103
  O  O80  1  0.522500  0.383300  0.810200  1.0  -0.7103
