# generated using pymatgen
data_Eu(CO)6
_symmetry_space_group_name_H-M   'P 1'
_cell_length_a   8.50280000
_cell_length_b   13.11080000
_cell_length_c   9.58310000
_cell_angle_alpha   90.00000000
_cell_angle_beta   96.03800000
_cell_angle_gamma   90.00000000
_symmetry_Int_Tables_number   1
_chemical_formula_structural   Eu(CO)6
_chemical_formula_sum   'Eu4 C24 O24'
_cell_volume   1062.38310390
_cell_formula_units_Z   4
loop_
 _symmetry_equiv_pos_site_id
 _symmetry_equiv_pos_as_xyz
  1  'x, y, z'
loop_
 _atom_site_type_symbol
 _atom_site_label
 _atom_site_symmetry_multiplicity
 _atom_site_fract_x
 _atom_site_fract_y
 _atom_site_fract_z
 _atom_site_occupancy
 _atom_site_charge
  Eu  Eu1  1  0.549260  0.266920  0.495710  1.0  2.0959
  Eu  Eu2  1  0.950740  0.766920  0.004290  1.0  2.0955
  Eu  Eu3  1  0.450740  0.733080  0.504290  1.0  2.0956
  Eu  Eu4  1  0.049260  0.233080  0.995710  1.0  2.0963
  C  C5  1  0.542800  0.389800  0.744700  1.0  0.668
  C  C6  1  0.525600  0.451800  0.876200  1.0  -0.1208
  C  C7  1  0.621200  0.426500  0.999300  1.0  -0.0669
  C  C8  1  0.406000  0.526900  0.873000  1.0  -0.146
  C  C9  1  0.761100  0.356300  0.993600  1.0  0.6633
  C  C10  1  0.300200  0.551400  0.740000  1.0  0.7406
  C  C11  1  0.957200  0.889800  0.755300  1.0  0.6692
  C  C12  1  0.974400  0.951800  0.623800  1.0  -0.1209
  C  C13  1  0.878800  0.926500  0.500700  1.0  -0.0671
  C  C14  1  0.094000  0.026900  0.627000  1.0  -0.1465
  C  C15  1  0.738900  0.856300  0.506400  1.0  0.6642
  C  C16  1  0.199800  0.051400  0.760000  1.0  0.743
  C  C17  1  0.457200  0.610200  0.255300  1.0  0.6684
  C  C18  1  0.474400  0.548200  0.123800  1.0  -0.121
  C  C19  1  0.378800  0.573500  0.000700  1.0  -0.0667
  C  C20  1  0.594000  0.473100  0.127000  1.0  -0.1468
  C  C21  1  0.238900  0.643700  0.006400  1.0  0.6647
  C  C22  1  0.699800  0.448600  0.260000  1.0  0.7431
  C  C23  1  0.042800  0.110200  0.244700  1.0  0.6679
  C  C24  1  0.025600  0.048200  0.376200  1.0  -0.1208
  C  C25  1  0.121200  0.073500  0.499300  1.0  -0.0665
  C  C26  1  0.906000  0.973100  0.373000  1.0  -0.1462
  C  C27  1  0.261100  0.143700  0.493600  1.0  0.664
  C  C28  1  0.800200  0.948600  0.240000  1.0  0.7408
  O  O29  1  0.546400  0.433100  0.627200  1.0  -0.6027
  O  O30  1  0.552300  0.293000  0.756500  1.0  -0.6223
  O  O31  1  0.789000  0.286700  0.085500  1.0  -0.6289
  O  O32  1  0.854000  0.372100  0.900300  1.0  -0.6682
  O  O33  1  0.348100  0.615000  0.656100  1.0  -0.7692
  O  O34  1  0.166700  0.507700  0.723100  1.0  -0.5443
  O  O35  1  0.953600  0.933100  0.872800  1.0  -0.6038
  O  O36  1  0.947700  0.793000  0.743500  1.0  -0.6218
  O  O37  1  0.711000  0.786700  0.414500  1.0  -0.6297
  O  O38  1  0.646000  0.872100  0.599700  1.0  -0.6684
  O  O39  1  0.151900  0.115000  0.843900  1.0  -0.7669
  O  O40  1  0.333333  0.007700  0.776900  1.0  -0.5468
  O  O41  1  0.453600  0.566900  0.372800  1.0  -0.6033
  O  O42  1  0.447700  0.707000  0.243500  1.0  -0.6213
  O  O43  1  0.211000  0.713300  0.914500  1.0  -0.6298
  O  O44  1  0.146000  0.627900  0.099700  1.0  -0.6681
  O  O45  1  0.651900  0.385000  0.343900  1.0  -0.7669
  O  O46  1  0.833300  0.492300  0.276900  1.0  -0.547
  O  O47  1  0.046400  0.066900  0.127200  1.0  -0.6029
  O  O48  1  0.052300  0.207000  0.256500  1.0  -0.6216
  O  O49  1  0.289000  0.213300  0.585500  1.0  -0.6297
  O  O50  1  0.354000  0.127900  0.400300  1.0  -0.6682
  O  O51  1  0.848100  0.885000  0.156100  1.0  -0.7687
  O  O52  1  0.666667  0.992300  0.223100  1.0  -0.544
