# generated using pymatgen
data_ZrH4C8O5
_symmetry_space_group_name_H-M   'P 1'
_cell_length_a   7.80220000
_cell_length_b   11.17950000
_cell_length_c   13.43060000
_cell_angle_alpha   114.59500000
_cell_angle_beta   102.58200000
_cell_angle_gamma   90.00000000
_symmetry_Int_Tables_number   1
_chemical_formula_structural   ZrH4C8O5
_chemical_formula_sum   'Zr4 H16 C32 O20'
_cell_volume   1034.17438280
_cell_formula_units_Z   4
loop_
 _symmetry_equiv_pos_site_id
 _symmetry_equiv_pos_as_xyz
  1  'x, y, z'
loop_
 _atom_site_type_symbol
 _atom_site_label
 _atom_site_symmetry_multiplicity
 _atom_site_fract_x
 _atom_site_fract_y
 _atom_site_fract_z
 _atom_site_occupancy
 _atom_site_charge
  Zr  Zr1  1  0.678020  0.031510  0.113660  1.0  2.079
  Zr  Zr2  1  0.822320  0.918850  0.886400  1.0  2.0824
  Zr  Zr3  1  0.322320  0.968270  0.886470  1.0  2.0823
  Zr  Zr4  1  0.178060  0.081880  0.113660  1.0  2.0822
  H  H5  1  0.713690  0.911900  0.381220  1.0  0.1004
  H  H6  1  0.261240  0.126540  0.449940  1.0  0.1012
  H  H7  1  0.813200  0.500090  0.837020  1.0  0.1018
  H  H8  1  0.811540  0.283240  0.838420  1.0  0.1097
  H  H9  1  0.784610  0.531200  0.617850  1.0  0.0992
  H  H10  1  0.239930  0.675070  0.550320  1.0  0.1001
  H  H11  1  0.685400  0.663270  0.166810  1.0  0.1073
  H  H12  1  0.687390  0.443750  0.164850  1.0  0.1074
  H  H13  1  0.285940  0.088700  0.618550  1.0  0.0991
  H  H14  1  0.738400  0.874090  0.549760  1.0  0.0999
  H  H15  1  0.187590  0.499030  0.162950  1.0  0.1019
  H  H16  1  0.188220  0.717320  0.163240  1.0  0.1102
  H  H17  1  0.215150  0.468420  0.382020  1.0  0.0994
  H  H18  1  0.759840  0.324470  0.449500  1.0  0.1011
  H  H19  1  0.312870  0.336270  0.837170  1.0  0.1026
  H  H20  1  0.311840  0.554280  0.836900  1.0  0.1087
  C  C21  1  0.468170  0.043610  0.295620  1.0  0.6863
  C  C22  1  0.485810  0.023040  0.401110  1.0  -0.1147
  C  C23  1  0.619400  0.951490  0.432180  1.0  -0.0874
  C  C24  1  0.366370  0.071370  0.470550  1.0  -0.0834
  C  C25  1  0.785170  0.490620  0.909070  1.0  -0.115
  C  C26  1  0.784150  0.365650  0.910100  1.0  -0.1238
  C  C27  1  0.031850  0.747750  0.703950  1.0  0.6764
  C  C28  1  0.013930  0.621490  0.598540  1.0  -0.1068
  C  C29  1  0.879480  0.519320  0.567190  1.0  -0.0836
  C  C30  1  0.134140  0.599700  0.529520  1.0  -0.0852
  C  C31  1  0.713510  0.581310  0.095130  1.0  -0.1192
  C  C32  1  0.714710  0.455510  0.093590  1.0  -0.1043
  C  C33  1  0.531720  0.956970  0.704140  1.0  0.6751
  C  C34  1  0.513820  0.977570  0.598640  1.0  -0.1079
  C  C35  1  0.380180  0.049100  0.567560  1.0  -0.0847
  C  C36  1  0.633250  0.929260  0.529190  1.0  -0.0861
  C  C37  1  0.215250  0.509550  0.091240  1.0  -0.102
  C  C38  1  0.215610  0.635160  0.091400  1.0  -0.1111
  C  C39  1  0.968120  0.251880  0.295900  1.0  0.6743
  C  C40  1  0.985830  0.378100  0.401300  1.0  -0.1121
  C  C41  1  0.120240  0.480280  0.432650  1.0  -0.083
  C  C42  1  0.865620  0.399860  0.470320  1.0  -0.0854
  C  C43  1  0.285100  0.418430  0.908870  1.0  -0.105
  C  C44  1  0.284500  0.543900  0.908740  1.0  -0.1072
  C  C45  1  0.749750  0.212150  0.000730  1.0  0.6436
  C  C46  1  0.750580  0.734740  0.999350  1.0  0.6174
  C  C47  1  0.750510  0.601460  0.999290  1.0  -0.1088
  C  C48  1  0.749550  0.346260  0.001450  1.0  -0.1028
  C  C49  1  0.249890  0.788190  0.000080  1.0  0.635
  C  C50  1  0.250290  0.265490  0.000030  1.0  0.6079
  C  C51  1  0.250220  0.399280  0.000050  1.0  -0.0972
  C  C52  1  0.249970  0.654310  0.000070  1.0  -0.0975
  O  O53  1  0.714830  0.199910  0.085410  1.0  -0.5998
  O  O54  1  0.581610  0.995670  0.235960  1.0  -0.6351
  O  O55  1  0.417900  0.088430  0.058290  1.0  -0.716
  O  O56  1  0.699870  0.829600  0.079720  1.0  -0.621
  O  O57  1  0.339070  0.105680  0.270440  1.0  -0.6221
  O  O58  1  0.784750  0.115840  0.915610  1.0  -0.6052
  O  O59  1  0.916100  0.760920  0.762350  1.0  -0.628
  O  O60  1  0.082710  0.030670  0.941850  1.0  -0.7184
  O  O61  1  0.801260  0.750030  0.919280  1.0  -0.6182
  O  O62  1  0.162900  0.833760  0.729810  1.0  -0.6226
  O  O63  1  0.285070  0.800040  0.915250  1.0  -0.6056
  O  O64  1  0.416590  0.002900  0.762900  1.0  -0.6299
  O  O65  1  0.582650  0.911680  0.941720  1.0  -0.7204
  O  O66  1  0.301160  0.170250  0.919900  1.0  -0.6189
  O  O67  1  0.662380  0.896410  0.729820  1.0  -0.6242
  O  O68  1  0.214670  0.884820  0.084930  1.0  -0.6054
  O  O69  1  0.082400  0.239690  0.236690  1.0  -0.6354
  O  O70  1  0.917840  0.969750  0.058140  1.0  -0.7189
  O  O71  1  0.199340  0.250340  0.080120  1.0  -0.6134
  O  O72  1  0.838360  0.165010  0.270490  1.0  -0.6193
