# generated using pymatgen
data_ErH28C44(NO)8
_symmetry_space_group_name_H-M   'P 1'
_cell_length_a   10.01300000
_cell_length_b   13.13800000
_cell_length_c   33.94700000
_cell_angle_alpha   90.00000000
_cell_angle_beta   90.00000000
_cell_angle_gamma   90.00000000
_symmetry_Int_Tables_number   1
_chemical_formula_structural   ErH28C44(NO)8
_chemical_formula_sum   'Er4 H112 C176 N32 O32'
_cell_volume   4465.75480392
_cell_formula_units_Z   4
loop_
 _symmetry_equiv_pos_site_id
 _symmetry_equiv_pos_as_xyz
  1  'x, y, z'
loop_
 _atom_site_type_symbol
 _atom_site_label
 _atom_site_symmetry_multiplicity
 _atom_site_fract_x
 _atom_site_fract_y
 _atom_site_fract_z
 _atom_site_occupancy
 _atom_site_charge
  Er  Er1  1  0.468090  0.750000  0.750000  1.0  1.5542
  Er  Er2  1  0.531910  0.250000  0.250000  1.0  1.555
  Er  Er3  1  0.031910  0.250000  0.250000  1.0  1.555
  Er  Er4  1  0.968090  0.750000  0.750000  1.0  1.5542
  H  H5  1  0.489600  0.649700  0.580400  1.0  0.1215
  H  H6  1  0.947200  0.586600  0.422700  1.0  0.1074
  H  H7  1  0.760100  0.611700  0.649300  1.0  0.106
  H  H8  1  0.978600  0.606600  0.490000  1.0  0.1109
  H  H9  1  0.638900  0.719000  0.108300  1.0  0.1193
  H  H10  1  0.178100  0.947200  0.589500  1.0  0.1168
  H  H11  1  0.007100  0.103300  0.592100  1.0  0.171
  H  H12  1  0.521400  0.106600  0.510000  1.0  0.1106
  H  H13  1  0.478600  0.606600  0.010000  1.0  0.1108
  H  H14  1  0.552800  0.086600  0.577300  1.0  0.1077
  H  H15  1  0.947200  0.913400  0.077300  1.0  0.1081
  H  H16  1  0.548600  0.828300  0.625000  1.0  0.1233
  H  H17  1  0.048600  0.828300  0.875000  1.0  0.1235
  H  H18  1  0.554200  0.843200  0.332700  1.0  0.1228
  H  H19  1  0.492900  0.603300  0.407900  1.0  0.1729
  H  H20  1  0.021400  0.106600  0.990000  1.0  0.1105
  H  H21  1  0.731500  0.915900  0.103700  1.0  0.1367
  H  H22  1  0.548600  0.671700  0.875000  1.0  0.1232
  H  H23  1  0.553600  0.334800  0.352200  1.0  0.1185
  H  H24  1  0.255600  0.371500  0.005700  1.0  0.2496
  H  H25  1  0.321900  0.052800  0.089500  1.0  0.117
  H  H26  1  0.946400  0.665200  0.852200  1.0  0.1183
  H  H27  1  0.407100  0.155200  0.441700  1.0  0.1186
  H  H28  1  0.489600  0.850300  0.919600  1.0  0.121
  H  H29  1  0.202400  0.131200  0.031800  1.0  0.128
  H  H30  1  0.702400  0.368800  0.031800  1.0  0.1281
  H  H31  1  0.054200  0.843200  0.167300  1.0  0.1229
  H  H32  1  0.554200  0.656800  0.167300  1.0  0.1229
  H  H33  1  0.553600  0.165200  0.147800  1.0  0.1188
  H  H34  1  0.054200  0.656800  0.332700  1.0  0.1241
  H  H35  1  0.907100  0.155200  0.058300  1.0  0.1185
  H  H36  1  0.239900  0.111700  0.149300  1.0  0.1065
  H  H37  1  0.760100  0.888300  0.850700  1.0  0.106
  H  H38  1  0.268500  0.415900  0.603700  1.0  0.1368
  H  H39  1  0.260100  0.611700  0.850700  1.0  0.1056
  H  H40  1  0.138900  0.781000  0.108300  1.0  0.12
  H  H41  1  0.592900  0.655200  0.941700  1.0  0.1185
  H  H42  1  0.092900  0.655200  0.558300  1.0  0.1185
  H  H43  1  0.978600  0.893400  0.010000  1.0  0.111
  H  H44  1  0.092900  0.844800  0.941700  1.0  0.1187
  H  H45  1  0.510400  0.350300  0.419600  1.0  0.1212
  H  H46  1  0.907100  0.344800  0.441700  1.0  0.1187
  H  H47  1  0.510400  0.149700  0.080400  1.0  0.1214
  H  H48  1  0.755600  0.371500  0.494300  1.0  0.25
  H  H49  1  0.361100  0.281000  0.891700  1.0  0.1196
  H  H50  1  0.244400  0.871500  0.994300  1.0  0.2493
  H  H51  1  0.447200  0.913400  0.422700  1.0  0.1072
  H  H52  1  0.178100  0.552800  0.910500  1.0  0.1173
  H  H53  1  0.297600  0.631200  0.968200  1.0  0.1278
  H  H54  1  0.492900  0.896700  0.092100  1.0  0.1712
  H  H55  1  0.478600  0.893400  0.490000  1.0  0.1111
  H  H56  1  0.521400  0.393400  0.990000  1.0  0.1104
  H  H57  1  0.007100  0.396700  0.907900  1.0  0.1725
  H  H58  1  0.244400  0.628500  0.505700  1.0  0.249
  H  H59  1  0.048600  0.671700  0.625000  1.0  0.1233
  H  H60  1  0.951400  0.171700  0.125000  1.0  0.1233
  H  H61  1  0.010400  0.350300  0.080400  1.0  0.1216
  H  H62  1  0.744400  0.871500  0.505700  1.0  0.2487
  H  H63  1  0.447200  0.586600  0.077300  1.0  0.108
  H  H64  1  0.951400  0.328300  0.375000  1.0  0.1233
  H  H65  1  0.768500  0.415900  0.896300  1.0  0.1375
  H  H66  1  0.945800  0.156800  0.832700  1.0  0.1246
  H  H67  1  0.507100  0.103300  0.907900  1.0  0.1728
  H  H68  1  0.946400  0.834800  0.647800  1.0  0.1188
  H  H69  1  0.260100  0.888300  0.649300  1.0  0.1062
  H  H70  1  0.592900  0.844800  0.558300  1.0  0.1187
  H  H71  1  0.021400  0.393400  0.510000  1.0  0.1102
  H  H72  1  0.321900  0.447200  0.410500  1.0  0.117
  H  H73  1  0.989600  0.850300  0.580400  1.0  0.1216
  H  H74  1  0.861100  0.219000  0.891700  1.0  0.1195
  H  H75  1  0.507100  0.396700  0.592100  1.0  0.171
  H  H76  1  0.138900  0.719000  0.391700  1.0  0.1193
  H  H77  1  0.797600  0.868800  0.968200  1.0  0.1278
  H  H78  1  0.268500  0.084100  0.896300  1.0  0.1376
  H  H79  1  0.297600  0.868800  0.531800  1.0  0.1282
  H  H80  1  0.255600  0.128500  0.494300  1.0  0.2501
  H  H81  1  0.239900  0.388300  0.350700  1.0  0.1063
  H  H82  1  0.797600  0.631200  0.531800  1.0  0.1283
  H  H83  1  0.992900  0.603300  0.092100  1.0  0.1714
  H  H84  1  0.821900  0.052800  0.410500  1.0  0.1172
  H  H85  1  0.739900  0.388300  0.149300  1.0  0.1064
  H  H86  1  0.861100  0.281000  0.608300  1.0  0.1199
  H  H87  1  0.446400  0.834800  0.852200  1.0  0.1183
  H  H88  1  0.755600  0.128500  0.005700  1.0  0.2494
  H  H89  1  0.744400  0.628500  0.994300  1.0  0.2494
  H  H90  1  0.451400  0.328300  0.125000  1.0  0.123
  H  H91  1  0.446400  0.665200  0.647800  1.0  0.1192
  H  H92  1  0.202400  0.368800  0.468200  1.0  0.1278
  H  H93  1  0.231500  0.915900  0.396300  1.0  0.1377
  H  H94  1  0.053600  0.334800  0.147800  1.0  0.1186
  H  H95  1  0.231500  0.584100  0.103700  1.0  0.1367
  H  H96  1  0.989600  0.649700  0.919600  1.0  0.1209
  H  H97  1  0.445800  0.343200  0.832700  1.0  0.1233
  H  H98  1  0.052800  0.413400  0.577300  1.0  0.1075
  H  H99  1  0.407100  0.344800  0.058300  1.0  0.1186
  H  H100  1  0.678100  0.947200  0.910500  1.0  0.1171
  H  H101  1  0.451400  0.171700  0.375000  1.0  0.1234
  H  H102  1  0.638900  0.781000  0.391700  1.0  0.1195
  H  H103  1  0.678100  0.552800  0.589500  1.0  0.1171
  H  H104  1  0.053600  0.165200  0.352200  1.0  0.1181
  H  H105  1  0.821900  0.447200  0.089500  1.0  0.1168
  H  H106  1  0.992900  0.896700  0.407900  1.0  0.1725
  H  H107  1  0.768500  0.084100  0.603700  1.0  0.1368
  H  H108  1  0.731500  0.584100  0.396300  1.0  0.1378
  H  H109  1  0.361100  0.219000  0.608300  1.0  0.1192
  H  H110  1  0.010400  0.149700  0.419600  1.0  0.121
  H  H111  1  0.552800  0.413400  0.922700  1.0  0.1069
  H  H112  1  0.945800  0.343200  0.667300  1.0  0.123
  H  H113  1  0.739900  0.111700  0.350700  1.0  0.106
  H  H114  1  0.445800  0.156800  0.667300  1.0  0.123
  H  H115  1  0.702400  0.131200  0.468200  1.0  0.1278
  H  H116  1  0.052800  0.086600  0.922700  1.0  0.1073
  C  C117  1  0.361700  0.167400  0.383920  1.0  -0.0515
  C  C118  1  0.125800  0.336200  0.129600  1.0  -0.0758
  C  C119  1  0.664800  0.657500  0.923460  1.0  -0.157
  C  C120  1  0.658100  0.651200  0.116230  1.0  -0.1058
  C  C121  1  0.399700  0.880100  0.042640  1.0  0.3
  C  C122  1  0.135600  0.608100  0.051440  1.0  0.1671
  C  C123  1  0.718600  0.455300  0.140820  1.0  -0.0154
  C  C124  1  0.361700  0.332600  0.116080  1.0  -0.0497
  C  C125  1  0.600300  0.380100  0.542640  1.0  0.3006
  C  C126  1  0.152500  0.878800  0.488960  1.0  0.2135
  C  C127  1  0.625800  0.336200  0.370400  1.0  -0.076
  C  C128  1  0.918900  0.977900  0.797790  1.0  0.7501
  C  C129  1  0.255800  0.328700  0.143310  1.0  -0.1399
  C  C130  1  0.899700  0.619900  0.042640  1.0  0.2999
  C  C131  1  0.364400  0.108100  0.948560  1.0  0.1701
  C  C132  1  0.860500  0.016700  0.835630  1.0  -0.1266
  C  C133  1  0.283400  0.621500  0.995600  1.0  -0.1542
  C  C134  1  0.890600  0.385600  0.651480  1.0  -0.0242
  C  C135  1  0.581100  0.022100  0.297790  1.0  0.7304
  C  C136  1  0.861700  0.332600  0.383920  1.0  -0.0516
  C  C137  1  0.364400  0.391900  0.551440  1.0  0.169
  C  C138  1  0.244200  0.828700  0.856690  1.0  -0.1394
  C  C139  1  0.109300  0.392500  0.520500  1.0  -0.0648
  C  C140  1  0.732900  0.990100  0.894800  1.0  -0.1468
  C  C141  1  0.763900  0.411900  0.592170  1.0  0.2175
  C  C142  1  0.781400  0.955300  0.859180  1.0  -0.0154
  C  C143  1  0.795900  0.849300  0.562820  1.0  0.2361
  C  C144  1  0.872100  0.905200  0.060500  1.0  -0.0938
  C  C145  1  0.281400  0.544700  0.859180  1.0  -0.0158
  C  C146  1  0.427500  0.868500  0.000060  1.0  0.3186
  C  C147  1  0.718600  0.044700  0.359180  1.0  -0.0176
  C  C148  1  0.139500  0.983300  0.164370  1.0  -0.1251
  C  C149  1  0.072500  0.368500  0.999940  1.0  0.3196
  C  C150  1  0.390700  0.607500  0.020500  1.0  -0.0644
  C  C151  1  0.390700  0.892500  0.479500  1.0  -0.0643
  C  C152  1  0.335200  0.342500  0.076540  1.0  -0.1572
  C  C153  1  0.284900  0.310300  0.185950  1.0  0.7755
  C  C154  1  0.639500  0.516700  0.164370  1.0  -0.1244
  C  C155  1  0.609400  0.614400  0.151480  1.0  -0.0218
  C  C156  1  0.164800  0.657500  0.576540  1.0  -0.1573
  C  C157  1  0.267100  0.490100  0.394800  1.0  -0.1462
  C  C158  1  0.374200  0.836200  0.870400  1.0  -0.0761
  C  C159  1  0.847500  0.378800  0.988960  1.0  0.2137
  C  C160  1  0.255800  0.171300  0.356690  1.0  -0.1396
  C  C161  1  0.255500  0.094100  0.923700  1.0  -0.1455
  C  C162  1  0.635600  0.608100  0.448560  1.0  0.1704
  C  C163  1  0.164800  0.842500  0.923460  1.0  -0.1579
  C  C164  1  0.841900  0.348800  0.616230  1.0  -0.1053
  C  C165  1  0.716600  0.121500  0.495600  1.0  -0.154
  C  C166  1  0.704100  0.150700  0.062820  1.0  0.2358
  C  C167  1  0.427500  0.631500  0.499940  1.0  0.3187
  C  C168  1  0.400100  0.846000  0.910550  1.0  -0.1131
  C  C169  1  0.081100  0.022100  0.202210  1.0  0.7313
  C  C170  1  0.236100  0.588100  0.407830  1.0  0.217
  C  C171  1  0.784900  0.310300  0.314050  1.0  0.7786
  C  C172  1  0.099900  0.346000  0.089450  1.0  -0.1109
  C  C173  1  0.599900  0.346000  0.410550  1.0  -0.1108
  C  C174  1  0.755800  0.171300  0.143310  1.0  -0.1405
  C  C175  1  0.781400  0.544700  0.640820  1.0  -0.0138
  C  C176  1  0.874200  0.663800  0.870400  1.0  -0.0767
  C  C177  1  0.784900  0.189700  0.185950  1.0  0.7752
  C  C178  1  0.284900  0.189700  0.314050  1.0  0.7762
  C  C179  1  0.847500  0.121200  0.511040  1.0  0.2119
  C  C180  1  0.232900  0.509900  0.894800  1.0  -0.1463
  C  C181  1  0.218600  0.455300  0.359180  1.0  -0.0156
  C  C182  1  0.652500  0.878800  0.011040  1.0  0.2126
  C  C183  1  0.638300  0.832600  0.616080  1.0  -0.0494
  C  C184  1  0.767100  0.009900  0.394800  1.0  -0.1455
  C  C185  1  0.400100  0.654000  0.589450  1.0  -0.1153
  C  C186  1  0.232900  0.990100  0.605200  1.0  -0.1471
  C  C187  1  0.874200  0.836200  0.629600  1.0  -0.075
  C  C188  1  0.109400  0.885600  0.151480  1.0  -0.0237
  C  C189  1  0.244200  0.671300  0.643310  1.0  -0.1408
  C  C190  1  0.216600  0.121500  0.004400  1.0  -0.1561
  C  C191  1  0.609400  0.885600  0.348520  1.0  -0.0225
  C  C192  1  0.864400  0.391900  0.948560  1.0  0.1675
  C  C193  1  0.783400  0.878500  0.995600  1.0  -0.1544
  C  C194  1  0.263900  0.088100  0.592170  1.0  0.2166
  C  C195  1  0.715100  0.810300  0.685950  1.0  0.7761
  C  C196  1  0.418900  0.522100  0.797790  1.0  0.731
  C  C197  1  0.372100  0.905200  0.439500  1.0  -0.0928
  C  C198  1  0.841900  0.151200  0.883770  1.0  -0.1033
  C  C199  1  0.627900  0.094800  0.560500  1.0  -0.0943
  C  C200  1  0.658100  0.848800  0.383770  1.0  -0.1062
  C  C201  1  0.732900  0.509900  0.605200  1.0  -0.1466
  C  C202  1  0.900100  0.846000  0.589450  1.0  -0.1118
  C  C203  1  0.744500  0.905900  0.076300  1.0  -0.1468
  C  C204  1  0.295900  0.650700  0.562820  1.0  0.2361
  C  C205  1  0.755800  0.328700  0.356690  1.0  -0.1392
  C  C206  1  0.715100  0.689700  0.814050  1.0  0.7783
  C  C207  1  0.390600  0.385600  0.848520  1.0  -0.0275
  C  C208  1  0.639500  0.983300  0.335630  1.0  -0.1261
  C  C209  1  0.138300  0.667400  0.616080  1.0  -0.0485
  C  C210  1  0.127900  0.094800  0.939500  1.0  -0.0938
  C  C211  1  0.081100  0.477900  0.297790  1.0  0.7507
  C  C212  1  0.267100  0.009900  0.105200  1.0  -0.1457
  C  C213  1  0.236100  0.911900  0.092170  1.0  0.2177
  C  C214  1  0.581100  0.477900  0.202210  1.0  0.7483
  C  C215  1  0.281400  0.955300  0.640820  1.0  -0.0159
  C  C216  1  0.783400  0.621500  0.504400  1.0  -0.1562
  C  C217  1  0.341900  0.348800  0.883770  1.0  -0.1055
  C  C218  1  0.625800  0.163800  0.129600  1.0  -0.076
  C  C219  1  0.835200  0.342500  0.423460  1.0  -0.1578
  C  C220  1  0.861700  0.167400  0.116080  1.0  -0.0496
  C  C221  1  0.216600  0.378500  0.495600  1.0  -0.1539
  C  C222  1  0.100300  0.119900  0.542640  1.0  0.3003
  C  C223  1  0.927500  0.631500  0.000060  1.0  0.3176
  C  C224  1  0.609300  0.392500  0.979500  1.0  -0.0647
  C  C225  1  0.215100  0.689700  0.685950  1.0  0.776
  C  C226  1  0.158100  0.848800  0.116230  1.0  -0.1057
  C  C227  1  0.283400  0.878500  0.504400  1.0  -0.1561
  C  C228  1  0.599900  0.154000  0.089450  1.0  -0.1121
  C  C229  1  0.360500  0.016700  0.664370  1.0  -0.1249
  C  C230  1  0.638300  0.667400  0.883920  1.0  -0.0494
  C  C231  1  0.204100  0.150700  0.437180  1.0  0.2311
  C  C232  1  0.399700  0.619900  0.457360  1.0  0.2996
  C  C233  1  0.109300  0.107500  0.979500  1.0  -0.0647
  C  C234  1  0.763900  0.088100  0.907830  1.0  0.2168
  C  C235  1  0.341900  0.151200  0.616230  1.0  -0.1051
  C  C236  1  0.347500  0.378800  0.511040  1.0  0.2112
  C  C237  1  0.100300  0.380100  0.957360  1.0  0.3001
  C  C238  1  0.572500  0.131500  0.999940  1.0  0.3189
  C  C239  1  0.704100  0.349300  0.437180  1.0  0.2353
  C  C240  1  0.244500  0.905900  0.423700  1.0  -0.1452
  C  C241  1  0.716600  0.378500  0.004400  1.0  -0.1565
  C  C242  1  0.418900  0.977900  0.702210  1.0  0.7503
  C  C243  1  0.390600  0.114400  0.651480  1.0  -0.0246
  C  C244  1  0.890700  0.892500  0.020500  1.0  -0.0638
  C  C245  1  0.218600  0.044700  0.140820  1.0  -0.0148
  C  C246  1  0.918900  0.522100  0.702210  1.0  0.731
  C  C247  1  0.139500  0.516700  0.335630  1.0  -0.1264
  C  C248  1  0.109400  0.614400  0.348520  1.0  -0.0263
  C  C249  1  0.263900  0.411900  0.907830  1.0  0.2176
  C  C250  1  0.652500  0.621200  0.488960  1.0  0.2132
  C  C251  1  0.158100  0.651200  0.383770  1.0  -0.1042
  C  C252  1  0.835200  0.157500  0.076540  1.0  -0.157
  C  C253  1  0.864400  0.108100  0.551440  1.0  0.1697
  C  C254  1  0.152500  0.621200  0.011040  1.0  0.2124
  C  C255  1  0.600300  0.119900  0.957360  1.0  0.3001
  C  C256  1  0.135600  0.891900  0.448560  1.0  0.1683
  C  C257  1  0.360500  0.483300  0.835630  1.0  -0.1262
  C  C258  1  0.755500  0.094100  0.576300  1.0  -0.1468
  C  C259  1  0.890600  0.114400  0.848520  1.0  -0.017
  C  C260  1  0.335200  0.157500  0.423460  1.0  -0.1577
  C  C261  1  0.127900  0.405200  0.560500  1.0  -0.0942
  C  C262  1  0.664800  0.842500  0.576540  1.0  -0.1582
  C  C263  1  0.204100  0.349300  0.062820  1.0  0.2358
  C  C264  1  0.244500  0.594100  0.076300  1.0  -0.1467
  C  C265  1  0.900100  0.654000  0.910550  1.0  -0.1136
  C  C266  1  0.927500  0.868500  0.499940  1.0  0.3192
  C  C267  1  0.609300  0.107500  0.520500  1.0  -0.0654
  C  C268  1  0.872100  0.594800  0.439500  1.0  -0.1002
  C  C269  1  0.627900  0.405200  0.939500  1.0  -0.0943
  C  C270  1  0.767100  0.490100  0.105200  1.0  -0.1462
  C  C271  1  0.255500  0.405900  0.576300  1.0  -0.147
  C  C272  1  0.374200  0.663800  0.629600  1.0  -0.0763
  C  C273  1  0.138300  0.832600  0.883920  1.0  -0.0502
  C  C274  1  0.372100  0.594800  0.060500  1.0  -0.0937
  C  C275  1  0.635600  0.891900  0.051440  1.0  0.1686
  C  C276  1  0.744200  0.671300  0.856690  1.0  -0.1399
  C  C277  1  0.795900  0.650700  0.937180  1.0  0.2357
  C  C278  1  0.860500  0.483300  0.664370  1.0  -0.1255
  C  C279  1  0.215100  0.810300  0.814050  1.0  0.7804
  C  C280  1  0.125800  0.163800  0.370400  1.0  -0.0762
  C  C281  1  0.347500  0.121200  0.988960  1.0  0.213
  C  C282  1  0.736100  0.911900  0.407830  1.0  0.2178
  C  C283  1  0.899700  0.880100  0.457360  1.0  0.2994
  C  C284  1  0.755500  0.405900  0.923700  1.0  -0.1452
  C  C285  1  0.072500  0.131500  0.500060  1.0  0.3174
  C  C286  1  0.099900  0.154000  0.410550  1.0  -0.1125
  C  C287  1  0.295900  0.849300  0.937180  1.0  0.2357
  C  C288  1  0.744500  0.594100  0.423700  1.0  -0.1464
  C  C289  1  0.572500  0.368500  0.500060  1.0  0.3175
  C  C290  1  0.890700  0.607500  0.479500  1.0  -0.0642
  C  C291  1  0.744200  0.828700  0.643310  1.0  -0.14
  C  C292  1  0.736100  0.588100  0.092170  1.0  0.2168
  N  N293  1  0.494500  0.109400  0.933490  1.0  -0.3576
  N  N294  1  0.269000  0.604100  0.446800  1.0  -0.4692
  N  N295  1  0.453500  0.367100  0.484930  1.0  -0.4624
  N  N296  1  0.505500  0.609400  0.433490  1.0  -0.3572
  N  N297  1  0.314200  0.639300  0.521880  1.0  -0.2986
  N  N298  1  0.685800  0.139300  0.021880  1.0  -0.2985
  N  N299  1  0.046500  0.867100  0.515070  1.0  -0.4627
  N  N300  1  0.269000  0.895900  0.053200  1.0  -0.4707
  N  N301  1  0.814200  0.639300  0.978120  1.0  -0.2985
  N  N302  1  0.185800  0.360700  0.021880  1.0  -0.2992
  N  N303  1  0.005500  0.890600  0.433490  1.0  -0.3557
  N  N304  1  0.231000  0.104100  0.553200  1.0  -0.4689
  N  N305  1  0.731000  0.395900  0.553200  1.0  -0.468
  N  N306  1  0.685800  0.360700  0.478120  1.0  -0.2995
  N  N307  1  0.731000  0.104100  0.946800  1.0  -0.4675
  N  N308  1  0.994500  0.109400  0.566510  1.0  -0.3548
  N  N309  1  0.546500  0.867100  0.984930  1.0  -0.4615
  N  N310  1  0.231000  0.395900  0.946800  1.0  -0.4668
  N  N311  1  0.769000  0.604100  0.053200  1.0  -0.4686
  N  N312  1  0.314200  0.860700  0.978120  1.0  -0.2985
  N  N313  1  0.005500  0.609400  0.066510  1.0  -0.3554
  N  N314  1  0.814200  0.860700  0.521880  1.0  -0.2986
  N  N315  1  0.546500  0.632900  0.515070  1.0  -0.462
  N  N316  1  0.953500  0.132900  0.484930  1.0  -0.4634
  N  N317  1  0.046500  0.632900  0.984930  1.0  -0.4613
  N  N318  1  0.994500  0.390600  0.933490  1.0  -0.3571
  N  N319  1  0.453500  0.132900  0.015070  1.0  -0.4624
  N  N320  1  0.185800  0.139300  0.478120  1.0  -0.2991
  N  N321  1  0.494500  0.390600  0.566510  1.0  -0.3526
  N  N322  1  0.505500  0.890600  0.066510  1.0  -0.355
  N  N323  1  0.769000  0.895900  0.446800  1.0  -0.4684
  N  N324  1  0.953500  0.367100  0.015070  1.0  -0.4619
  O  O325  1  0.098900  0.790900  0.804060  1.0  -0.6923
  O  O326  1  0.369200  0.896500  0.716380  1.0  -0.7057
  O  O327  1  0.486000  0.525700  0.216930  1.0  -0.5043
  O  O328  1  0.901100  0.290900  0.304060  1.0  -0.6946
  O  O329  1  0.598900  0.709100  0.804060  1.0  -0.6932
  O  O330  1  0.811800  0.815900  0.709610  1.0  -0.7013
  O  O331  1  0.130800  0.396500  0.283620  1.0  -0.7053
  O  O332  1  0.514000  0.025700  0.716930  1.0  -0.5053
  O  O333  1  0.311800  0.684100  0.709610  1.0  -0.7016
  O  O334  1  0.986000  0.525700  0.283070  1.0  -0.5057
  O  O335  1  0.369200  0.603500  0.783620  1.0  -0.704
  O  O336  1  0.130800  0.103500  0.216380  1.0  -0.7048
  O  O337  1  0.486000  0.974300  0.283070  1.0  -0.5008
  O  O338  1  0.014000  0.474300  0.716930  1.0  -0.5005
  O  O339  1  0.401100  0.290900  0.195940  1.0  -0.6938
  O  O340  1  0.869200  0.603500  0.716380  1.0  -0.7047
  O  O341  1  0.630800  0.396500  0.216380  1.0  -0.706
  O  O342  1  0.986000  0.974300  0.216930  1.0  -0.5024
  O  O343  1  0.688200  0.184100  0.209610  1.0  -0.7014
  O  O344  1  0.098900  0.709100  0.695940  1.0  -0.6922
  O  O345  1  0.688200  0.315900  0.290390  1.0  -0.6993
  O  O346  1  0.630800  0.103500  0.283620  1.0  -0.705
  O  O347  1  0.869200  0.896500  0.783620  1.0  -0.7044
  O  O348  1  0.188200  0.184100  0.290390  1.0  -0.7002
  O  O349  1  0.811800  0.684100  0.790390  1.0  -0.7009
  O  O350  1  0.401100  0.209100  0.304060  1.0  -0.6942
  O  O351  1  0.311800  0.815900  0.790390  1.0  -0.6994
  O  O352  1  0.014000  0.025700  0.783070  1.0  -0.5021
  O  O353  1  0.514000  0.474300  0.783070  1.0  -0.5002
  O  O354  1  0.598900  0.790900  0.695940  1.0  -0.6941
  O  O355  1  0.901100  0.209100  0.195940  1.0  -0.6935
  O  O356  1  0.188200  0.315900  0.209610  1.0  -0.7016
