# generated using pymatgen
data_CdH24(C5N2)6
_symmetry_space_group_name_H-M   'P 1'
_cell_length_a   17.57300000
_cell_length_b   16.52800000
_cell_length_c   17.59500000
_cell_angle_alpha   90.00000000
_cell_angle_beta   90.00000000
_cell_angle_gamma   90.00000000
_symmetry_Int_Tables_number   1
_chemical_formula_structural   CdH24(C5N2)6
_chemical_formula_sum   'Cd4 H96 C120 N48'
_cell_volume   5110.40694168
_cell_formula_units_Z   4
loop_
 _symmetry_equiv_pos_site_id
 _symmetry_equiv_pos_as_xyz
  1  'x, y, z'
loop_
 _atom_site_type_symbol
 _atom_site_label
 _atom_site_symmetry_multiplicity
 _atom_site_fract_x
 _atom_site_fract_y
 _atom_site_fract_z
 _atom_site_occupancy
 _atom_site_charge
  Cd  Cd1  1  0.000000  0.000000  0.500000  1.0  0.7913
  Cd  Cd2  1  0.500000  0.000000  0.000000  1.0  0.7913
  Cd  Cd3  1  0.000000  0.500000  0.000000  1.0  0.7913
  Cd  Cd4  1  0.500000  0.500000  0.500000  1.0  0.7913
  H  H5  1  0.235900  0.779600  0.399800  1.0  0.106
  H  H6  1  0.109100  0.828900  0.449400  1.0  0.0719
  H  H7  1  0.096700  0.719000  0.227400  1.0  0.1
  H  H8  1  0.281100  0.583200  0.272200  1.0  0.1017
  H  H9  1  0.064400  0.628900  0.144200  1.0  0.07
  H  H10  1  0.343800  0.543900  0.395900  1.0  0.0835
  H  H11  1  0.080100  0.874300  0.231600  1.0  0.1002
  H  H12  1  0.377200  0.780400  0.409800  1.0  0.1047
  H  H13  1  0.011100  0.976000  0.306000  1.0  0.0758
  H  H14  1  0.256000  0.509300  0.168600  1.0  0.1012
  H  H15  1  0.185100  0.452000  0.063500  1.0  0.076
  H  H16  1  0.479600  0.711800  0.475600  1.0  0.0809
  H  H17  1  0.264100  0.220400  0.899800  1.0  0.1061
  H  H18  1  0.390900  0.171100  0.949400  1.0  0.0725
  H  H19  1  0.403300  0.281000  0.727400  1.0  0.1001
  H  H20  1  0.218900  0.416800  0.772200  1.0  0.1017
  H  H21  1  0.435600  0.371100  0.644200  1.0  0.0705
  H  H22  1  0.156200  0.456100  0.895900  1.0  0.0842
  H  H23  1  0.419900  0.125700  0.731600  1.0  0.1
  H  H24  1  0.122800  0.219600  0.909800  1.0  0.1037
  H  H25  1  0.488900  0.024000  0.806000  1.0  0.0756
  H  H26  1  0.244000  0.490700  0.668600  1.0  0.1006
  H  H27  1  0.314900  0.548000  0.563500  1.0  0.0767
  H  H28  1  0.020400  0.288200  0.975600  1.0  0.0819
  H  H29  1  0.764100  0.279600  0.100200  1.0  0.1051
  H  H30  1  0.890900  0.328900  0.050600  1.0  0.0715
  H  H31  1  0.903300  0.219000  0.272600  1.0  0.0997
  H  H32  1  0.718900  0.083200  0.227800  1.0  0.1012
  H  H33  1  0.935600  0.128900  0.355800  1.0  0.0694
  H  H34  1  0.656200  0.043900  0.104100  1.0  0.0838
  H  H35  1  0.919900  0.374300  0.268400  1.0  0.0997
  H  H36  1  0.622800  0.280400  0.090200  1.0  0.1044
  H  H37  1  0.988900  0.476000  0.194000  1.0  0.0755
  H  H38  1  0.744000  0.009300  0.331400  1.0  0.1017
  H  H39  1  0.814900  0.952000  0.436500  1.0  0.0761
  H  H40  1  0.520400  0.211800  0.024400  1.0  0.0812
  H  H41  1  0.735900  0.720400  0.600200  1.0  0.1054
  H  H42  1  0.609100  0.671100  0.550600  1.0  0.072
  H  H43  1  0.596700  0.781000  0.772600  1.0  0.0999
  H  H44  1  0.781100  0.916800  0.727800  1.0  0.1015
  H  H45  1  0.564400  0.871100  0.855800  1.0  0.0697
  H  H46  1  0.843800  0.956100  0.604100  1.0  0.084
  H  H47  1  0.580100  0.625700  0.768400  1.0  0.1001
  H  H48  1  0.877200  0.719600  0.590200  1.0  0.104
  H  H49  1  0.511100  0.524000  0.694000  1.0  0.0759
  H  H50  1  0.756000  0.990700  0.831400  1.0  0.1019
  H  H51  1  0.685100  0.048000  0.936500  1.0  0.0762
  H  H52  1  0.979600  0.788200  0.524400  1.0  0.081
  H  H53  1  0.764100  0.220400  0.600200  1.0  0.1053
  H  H54  1  0.890900  0.171100  0.550600  1.0  0.0717
  H  H55  1  0.903300  0.281000  0.772600  1.0  0.1
  H  H56  1  0.718900  0.416800  0.727800  1.0  0.1015
  H  H57  1  0.935600  0.371100  0.855800  1.0  0.0699
  H  H58  1  0.656200  0.456100  0.604100  1.0  0.0839
  H  H59  1  0.919900  0.125700  0.768400  1.0  0.1001
  H  H60  1  0.622800  0.219600  0.590200  1.0  0.1041
  H  H61  1  0.988900  0.024000  0.694000  1.0  0.0756
  H  H62  1  0.744000  0.490700  0.831400  1.0  0.1014
  H  H63  1  0.814900  0.548000  0.936500  1.0  0.0763
  H  H64  1  0.520400  0.288200  0.524400  1.0  0.0814
  H  H65  1  0.735900  0.779600  0.100200  1.0  0.1051
  H  H66  1  0.609100  0.828900  0.050600  1.0  0.0717
  H  H67  1  0.596700  0.719000  0.272600  1.0  0.0998
  H  H68  1  0.781100  0.583200  0.227800  1.0  0.1016
  H  H69  1  0.564400  0.628900  0.355800  1.0  0.0693
  H  H70  1  0.843800  0.543900  0.104100  1.0  0.0837
  H  H71  1  0.580100  0.874300  0.268400  1.0  0.0999
  H  H72  1  0.877200  0.780400  0.090200  1.0  0.1045
  H  H73  1  0.511100  0.976000  0.194000  1.0  0.0763
  H  H74  1  0.756000  0.509300  0.331400  1.0  0.1018
  H  H75  1  0.685100  0.452000  0.436500  1.0  0.076
  H  H76  1  0.979600  0.711800  0.024400  1.0  0.0805
  H  H77  1  0.235900  0.720400  0.899800  1.0  0.1061
  H  H78  1  0.109100  0.671100  0.949400  1.0  0.0724
  H  H79  1  0.096700  0.781000  0.727400  1.0  0.0998
  H  H80  1  0.281100  0.916800  0.772200  1.0  0.1018
  H  H81  1  0.064400  0.871100  0.644200  1.0  0.0703
  H  H82  1  0.343800  0.956100  0.895900  1.0  0.0839
  H  H83  1  0.080100  0.625700  0.731600  1.0  0.1002
  H  H84  1  0.377200  0.719600  0.909800  1.0  0.1041
  H  H85  1  0.011100  0.524000  0.806000  1.0  0.0755
  H  H86  1  0.256000  0.990700  0.668600  1.0  0.1015
  H  H87  1  0.185100  0.048000  0.563500  1.0  0.0761
  H  H88  1  0.479600  0.788200  0.975600  1.0  0.0817
  H  H89  1  0.264100  0.279600  0.399800  1.0  0.1061
  H  H90  1  0.390900  0.328900  0.449400  1.0  0.0721
  H  H91  1  0.403300  0.219000  0.227400  1.0  0.1001
  H  H92  1  0.218900  0.083200  0.272200  1.0  0.1012
  H  H93  1  0.435600  0.128900  0.144200  1.0  0.0701
  H  H94  1  0.156200  0.043900  0.395900  1.0  0.084
  H  H95  1  0.419900  0.374300  0.231600  1.0  0.1
  H  H96  1  0.122800  0.280400  0.409800  1.0  0.1044
  H  H97  1  0.488900  0.476000  0.306000  1.0  0.0756
  H  H98  1  0.244000  0.009300  0.168600  1.0  0.1008
  H  H99  1  0.314900  0.952000  0.063500  1.0  0.0764
  H  H100  1  0.020400  0.211800  0.475600  1.0  0.0816
  C  C101  1  0.267000  0.678900  0.344300  1.0  0.1394
  C  C102  1  0.158900  0.757600  0.316900  1.0  0.107
  C  C103  1  0.223100  0.744600  0.360500  1.0  -0.2575
  C  C104  1  0.092500  0.852800  0.404600  1.0  0.1202
  C  C105  1  0.184600  0.641700  0.241400  1.0  0.1211
  C  C106  1  0.139400  0.708000  0.256900  1.0  -0.2097
  C  C107  1  0.249700  0.626800  0.283700  1.0  -0.1718
  C  C108  1  0.103500  0.591900  0.136700  1.0  0.1219
  C  C109  1  0.364400  0.593900  0.408400  1.0  0.1183
  C  C110  1  0.077200  0.877200  0.284300  1.0  -0.1219
  C  C111  1  0.382800  0.724800  0.415500  1.0  -0.1245
  C  C112  1  0.039300  0.933300  0.325800  1.0  -0.0158
  C  C113  1  0.208900  0.526600  0.150900  1.0  -0.1446
  C  C114  1  0.169400  0.495700  0.093000  1.0  -0.0074
  C  C115  1  0.438800  0.686600  0.451800  1.0  -0.0158
  C  C116  1  0.233000  0.321100  0.844300  1.0  0.1389
  C  C117  1  0.341100  0.242400  0.816900  1.0  0.1066
  C  C118  1  0.276900  0.255400  0.860500  1.0  -0.258
  C  C119  1  0.407500  0.147200  0.904600  1.0  0.1194
  C  C120  1  0.315400  0.358300  0.741400  1.0  0.1208
  C  C121  1  0.360600  0.292000  0.756900  1.0  -0.2102
  C  C122  1  0.250300  0.373200  0.783700  1.0  -0.1729
  C  C123  1  0.396500  0.408100  0.636700  1.0  0.1221
  C  C124  1  0.135600  0.406100  0.908400  1.0  0.1183
  C  C125  1  0.422800  0.122800  0.784300  1.0  -0.1221
  C  C126  1  0.117200  0.275200  0.915500  1.0  -0.1239
  C  C127  1  0.460700  0.066700  0.825800  1.0  -0.0156
  C  C128  1  0.291100  0.473400  0.650900  1.0  -0.1437
  C  C129  1  0.330600  0.504300  0.593000  1.0  -0.0042
  C  C130  1  0.061200  0.313400  0.951800  1.0  -0.0164
  C  C131  1  0.733000  0.178900  0.155700  1.0  0.1394
  C  C132  1  0.841100  0.257600  0.183100  1.0  0.1066
  C  C133  1  0.776900  0.244600  0.139500  1.0  -0.2571
  C  C134  1  0.907500  0.352800  0.095400  1.0  0.119
  C  C135  1  0.815400  0.141700  0.258600  1.0  0.1208
  C  C136  1  0.860600  0.208000  0.243100  1.0  -0.2107
  C  C137  1  0.750300  0.126800  0.216300  1.0  -0.1727
  C  C138  1  0.896500  0.091900  0.363300  1.0  0.1218
  C  C139  1  0.635600  0.093900  0.091600  1.0  0.1182
  C  C140  1  0.922800  0.377200  0.215700  1.0  -0.1226
  C  C141  1  0.617200  0.224800  0.084500  1.0  -0.1241
  C  C142  1  0.960700  0.433300  0.174200  1.0  -0.0155
  C  C143  1  0.791100  0.026600  0.349100  1.0  -0.1432
  C  C144  1  0.830600  0.995700  0.407000  1.0  -0.0042
  C  C145  1  0.561200  0.186600  0.048200  1.0  -0.0163
  C  C146  1  0.767000  0.821100  0.655700  1.0  0.1392
  C  C147  1  0.658900  0.742400  0.683100  1.0  0.107
  C  C148  1  0.723100  0.755400  0.639500  1.0  -0.256
  C  C149  1  0.592500  0.647200  0.595400  1.0  0.1191
  C  C150  1  0.684600  0.858300  0.758600  1.0  0.1208
  C  C151  1  0.639400  0.792000  0.743100  1.0  -0.2102
  C  C152  1  0.749700  0.873200  0.716300  1.0  -0.1715
  C  C153  1  0.603500  0.908100  0.863300  1.0  0.1224
  C  C154  1  0.864400  0.906100  0.591600  1.0  0.1185
  C  C155  1  0.577200  0.622800  0.715700  1.0  -0.1232
  C  C156  1  0.882800  0.775200  0.584500  1.0  -0.1235
  C  C157  1  0.539300  0.566700  0.674200  1.0  -0.0172
  C  C158  1  0.708900  0.973400  0.849100  1.0  -0.1449
  C  C159  1  0.669400  0.004300  0.907000  1.0  -0.0057
  C  C160  1  0.938800  0.813400  0.548200  1.0  -0.0158
  C  C161  1  0.733000  0.321100  0.655700  1.0  0.139
  C  C162  1  0.841100  0.242400  0.683100  1.0  0.1066
  C  C163  1  0.776900  0.255400  0.639500  1.0  -0.257
  C  C164  1  0.907500  0.147200  0.595400  1.0  0.1189
  C  C165  1  0.815400  0.358300  0.758600  1.0  0.1206
  C  C166  1  0.860600  0.292000  0.743100  1.0  -0.2105
  C  C167  1  0.750300  0.373200  0.716300  1.0  -0.1725
  C  C168  1  0.896500  0.408100  0.863300  1.0  0.1219
  C  C169  1  0.635600  0.406100  0.591600  1.0  0.1182
  C  C170  1  0.922800  0.122800  0.715700  1.0  -0.1229
  C  C171  1  0.617200  0.275200  0.584500  1.0  -0.1239
  C  C172  1  0.960700  0.066700  0.674200  1.0  -0.0162
  C  C173  1  0.791100  0.473400  0.849100  1.0  -0.1433
  C  C174  1  0.830600  0.504300  0.907000  1.0  -0.0045
  C  C175  1  0.561200  0.313400  0.548200  1.0  -0.016
  C  C176  1  0.767000  0.678900  0.155700  1.0  0.1395
  C  C177  1  0.658900  0.757600  0.183100  1.0  0.107
  C  C178  1  0.723100  0.744600  0.139500  1.0  -0.2563
  C  C179  1  0.592500  0.852800  0.095400  1.0  0.1192
  C  C180  1  0.684600  0.641700  0.258600  1.0  0.1209
  C  C181  1  0.639400  0.708000  0.243100  1.0  -0.2103
  C  C182  1  0.749700  0.626800  0.216300  1.0  -0.1716
  C  C183  1  0.603500  0.591900  0.363300  1.0  0.1218
  C  C184  1  0.864400  0.593900  0.091600  1.0  0.1184
  C  C185  1  0.577200  0.877200  0.215700  1.0  -0.123
  C  C186  1  0.882800  0.724800  0.084500  1.0  -0.1242
  C  C187  1  0.539300  0.933300  0.174200  1.0  -0.0177
  C  C188  1  0.708900  0.526600  0.349100  1.0  -0.1448
  C  C189  1  0.669400  0.495700  0.407000  1.0  -0.0057
  C  C190  1  0.938800  0.686600  0.048200  1.0  -0.0159
  C  C191  1  0.267000  0.821100  0.844300  1.0  0.139
  C  C192  1  0.158900  0.742400  0.816900  1.0  0.1069
  C  C193  1  0.223100  0.755400  0.860500  1.0  -0.2567
  C  C194  1  0.092500  0.647200  0.904600  1.0  0.1199
  C  C195  1  0.184600  0.858300  0.741400  1.0  0.121
  C  C196  1  0.139400  0.792000  0.756900  1.0  -0.2097
  C  C197  1  0.249700  0.873200  0.783700  1.0  -0.1719
  C  C198  1  0.103500  0.908100  0.636700  1.0  0.1225
  C  C199  1  0.364400  0.906100  0.908400  1.0  0.1186
  C  C200  1  0.077200  0.622800  0.784300  1.0  -0.1217
  C  C201  1  0.382800  0.775200  0.915500  1.0  -0.1234
  C  C202  1  0.039300  0.566700  0.825800  1.0  -0.0162
  C  C203  1  0.208900  0.973400  0.650900  1.0  -0.1447
  C  C204  1  0.169400  0.004300  0.593000  1.0  -0.0058
  C  C205  1  0.438800  0.813400  0.951800  1.0  -0.0158
  C  C206  1  0.233000  0.178900  0.344300  1.0  0.1392
  C  C207  1  0.341100  0.257600  0.316900  1.0  0.1065
  C  C208  1  0.276900  0.244600  0.360500  1.0  -0.2588
  C  C209  1  0.407500  0.352800  0.404600  1.0  0.1197
  C  C210  1  0.315400  0.141700  0.241400  1.0  0.121
  C  C211  1  0.360600  0.208000  0.256900  1.0  -0.2103
  C  C212  1  0.250300  0.126800  0.283700  1.0  -0.1729
  C  C213  1  0.396500  0.091900  0.136700  1.0  0.122
  C  C214  1  0.135600  0.093900  0.408400  1.0  0.1181
  C  C215  1  0.422800  0.377200  0.284300  1.0  -0.1223
  C  C216  1  0.117200  0.224800  0.415500  1.0  -0.1245
  C  C217  1  0.460700  0.433300  0.325800  1.0  -0.0157
  C  C218  1  0.291100  0.026600  0.150900  1.0  -0.1433
  C  C219  1  0.330600  0.995700  0.093000  1.0  -0.0053
  C  C220  1  0.061200  0.186600  0.451800  1.0  -0.0165
  N  N221  1  0.334600  0.665500  0.387900  1.0  0.0254
  N  N222  1  0.165800  0.589300  0.179400  1.0  0.0037
  N  N223  1  0.110100  0.825500  0.335400  1.0  0.0272
  N  N224  1  0.049200  0.917100  0.402000  1.0  -0.3907
  N  N225  1  0.102600  0.537000  0.083000  1.0  -0.4015
  N  N226  1  0.427200  0.604300  0.448800  1.0  -0.3923
  N  N227  1  0.165400  0.334500  0.887900  1.0  0.026
  N  N228  1  0.334200  0.410700  0.679400  1.0  0.0051
  N  N229  1  0.389900  0.174500  0.835400  1.0  0.0275
  N  N230  1  0.450800  0.082900  0.902000  1.0  -0.3899
  N  N231  1  0.397400  0.463000  0.583000  1.0  -0.4033
  N  N232  1  0.072800  0.395700  0.948800  1.0  -0.3903
  N  N233  1  0.665400  0.165500  0.112100  1.0  0.0263
  N  N234  1  0.834200  0.089300  0.320600  1.0  0.0057
  N  N235  1  0.889900  0.325500  0.164600  1.0  0.0272
  N  N236  1  0.950800  0.417100  0.098000  1.0  -0.3903
  N  N237  1  0.897400  0.037000  0.417000  1.0  -0.4035
  N  N238  1  0.572800  0.104300  0.051200  1.0  -0.3907
  N  N239  1  0.834600  0.834500  0.612100  1.0  0.0253
  N  N240  1  0.665800  0.910700  0.820600  1.0  0.0051
  N  N241  1  0.610100  0.674500  0.664600  1.0  0.0278
  N  N242  1  0.549200  0.582900  0.598000  1.0  -0.3909
  N  N243  1  0.602600  0.963000  0.917000  1.0  -0.4021
  N  N244  1  0.927200  0.895700  0.551200  1.0  -0.3917
  N  N245  1  0.665400  0.334500  0.612100  1.0  0.0262
  N  N246  1  0.834200  0.410700  0.820600  1.0  0.0058
  N  N247  1  0.889900  0.174500  0.664600  1.0  0.0275
  N  N248  1  0.950800  0.082900  0.598000  1.0  -0.3904
  N  N249  1  0.897400  0.463000  0.917000  1.0  -0.4034
  N  N250  1  0.572800  0.395700  0.551200  1.0  -0.3908
  N  N251  1  0.834600  0.665500  0.112100  1.0  0.0257
  N  N252  1  0.665800  0.589300  0.320600  1.0  0.0047
  N  N253  1  0.610100  0.825500  0.164600  1.0  0.0274
  N  N254  1  0.549200  0.917100  0.098000  1.0  -0.3911
  N  N255  1  0.602600  0.537000  0.417000  1.0  -0.4018
  N  N256  1  0.927200  0.604300  0.051200  1.0  -0.3921
  N  N257  1  0.334600  0.834500  0.887900  1.0  0.0251
  N  N258  1  0.165800  0.910700  0.679400  1.0  0.0043
  N  N259  1  0.110100  0.674500  0.835400  1.0  0.0276
  N  N260  1  0.049200  0.582900  0.902000  1.0  -0.3907
  N  N261  1  0.102600  0.963000  0.583000  1.0  -0.4013
  N  N262  1  0.427200  0.895700  0.948800  1.0  -0.3914
  N  N263  1  0.165400  0.165500  0.387900  1.0  0.026
  N  N264  1  0.334200  0.089300  0.179400  1.0  0.0049
  N  N265  1  0.389900  0.325500  0.335400  1.0  0.0271
  N  N266  1  0.450800  0.417100  0.402000  1.0  -0.3893
  N  N267  1  0.397400  0.037000  0.083000  1.0  -0.4039
  N  N268  1  0.072800  0.104300  0.448800  1.0  -0.3909
