# generated using pymatgen
data_CdH24C30(N7O3)2
_symmetry_space_group_name_H-M   'P 1'
_cell_length_a   11.62900000
_cell_length_b   12.38000000
_cell_length_c   17.90200000
_cell_angle_alpha   90.00000000
_cell_angle_beta   90.00000000
_cell_angle_gamma   109.05100000
_symmetry_Int_Tables_number   1
_chemical_formula_structural   CdH24C30(N7O3)2
_chemical_formula_sum   'Cd2 H48 C60 N28 O12'
_cell_volume   2436.13489733
_cell_formula_units_Z   2
loop_
 _symmetry_equiv_pos_site_id
 _symmetry_equiv_pos_as_xyz
  1  'x, y, z'
loop_
 _atom_site_type_symbol
 _atom_site_label
 _atom_site_symmetry_multiplicity
 _atom_site_fract_x
 _atom_site_fract_y
 _atom_site_fract_z
 _atom_site_occupancy
 _atom_site_charge
  Cd  Cd1  1  0.500000  0.500000  0.500000  1.0  0.7593
  Cd  Cd2  1  0.000000  0.000000  0.000000  1.0  0.7593
  H  H3  1  0.725600  0.541400  0.357900  1.0  0.0986
  H  H4  1  0.536100  0.097900  0.417900  1.0  0.1246
  H  H5  1  0.261200  0.574500  0.444800  1.0  0.0951
  H  H6  1  0.528100  0.768700  0.999300  1.0  0.1285
  H  H7  1  0.794800  0.327700  0.792300  1.0  0.1181
  H  H8  1  0.268600  0.185500  0.945100  1.0  0.1019
  H  H9  1  0.036100  0.597900  0.082100  1.0  0.1245
  H  H10  1  0.999000  0.875600  0.172600  1.0  0.0837
  H  H11  1  0.873800  0.139100  0.264700  1.0  0.125
  H  H12  1  0.620100  0.808900  0.768600  1.0  0.12
  H  H13  1  0.294800  0.827700  0.707700  1.0  0.1181
  H  H14  1  0.591300  0.106200  0.079000  1.0  0.1196
  H  H15  1  0.738800  0.425500  0.555200  1.0  0.0944
  H  H16  1  0.975000  0.914400  0.807300  1.0  0.0999
  H  H17  1  0.525000  0.585600  0.307300  1.0  0.099
  H  H18  1  0.003800  0.720600  0.982900  1.0  0.1016
  H  H19  1  0.373800  0.639100  0.235300  1.0  0.1249
  H  H20  1  0.205200  0.672300  0.207700  1.0  0.1177
  H  H21  1  0.471900  0.231300  0.000700  1.0  0.1292
  H  H22  1  0.379900  0.191100  0.231400  1.0  0.1188
  H  H23  1  0.501000  0.624400  0.672600  1.0  0.0842
  H  H24  1  0.238800  0.925500  0.944800  1.0  0.095
  H  H25  1  0.963900  0.402100  0.917900  1.0  0.125
  H  H26  1  0.274400  0.458600  0.642100  1.0  0.0984
  H  H27  1  0.126200  0.860900  0.735300  1.0  0.1246
  H  H28  1  0.731400  0.814500  0.054900  1.0  0.1001
  H  H29  1  0.879900  0.691100  0.268600  1.0  0.1201
  H  H30  1  0.626200  0.360900  0.764700  1.0  0.1249
  H  H31  1  0.091300  0.606200  0.421000  1.0  0.1197
  H  H32  1  0.971900  0.731300  0.499300  1.0  0.1285
  H  H33  1  0.408700  0.893800  0.921000  1.0  0.1202
  H  H34  1  0.231400  0.314500  0.445100  1.0  0.0997
  H  H35  1  0.705200  0.172300  0.292300  1.0  0.1179
  H  H36  1  0.503800  0.220600  0.517100  1.0  0.1019
  H  H37  1  0.001000  0.124400  0.827400  1.0  0.0831
  H  H38  1  0.028100  0.268700  0.500700  1.0  0.1276
  H  H39  1  0.496200  0.779400  0.482900  1.0  0.1009
  H  H40  1  0.908700  0.393800  0.579000  1.0  0.1199
  H  H41  1  0.025000  0.085600  0.192700  1.0  0.0996
  H  H42  1  0.761200  0.074500  0.055200  1.0  0.095
  H  H43  1  0.499000  0.375600  0.327400  1.0  0.0828
  H  H44  1  0.463900  0.902100  0.582100  1.0  0.1252
  H  H45  1  0.996200  0.279400  0.017100  1.0  0.0994
  H  H46  1  0.774400  0.958600  0.857900  1.0  0.0983
  H  H47  1  0.768600  0.685500  0.554900  1.0  0.1015
  H  H48  1  0.120100  0.308900  0.731400  1.0  0.1207
  H  H49  1  0.225600  0.041400  0.142100  1.0  0.0988
  H  H50  1  0.475000  0.414400  0.692700  1.0  0.1002
  C  C51  1  0.527900  0.852300  0.852880  1.0  0.1375
  C  C52  1  0.952000  0.090000  0.174050  1.0  -0.0031
  C  C53  1  0.460400  0.813500  0.727750  1.0  0.1582
  C  C54  1  0.239200  0.417100  0.599960  1.0  0.1465
  C  C55  1  0.951700  0.677500  0.280820  1.0  -0.2399
  C  C56  1  0.601500  0.811600  0.977610  1.0  -0.1433
  C  C57  1  0.507000  0.236700  0.466210  1.0  0.0002
  C  C58  1  0.739200  0.917100  0.900040  1.0  0.1464
  C  C59  1  0.146700  0.666100  0.244350  1.0  -0.1518
  C  C60  1  0.975200  0.331700  0.911750  1.0  -0.1068
  C  C61  1  0.539600  0.186500  0.272250  1.0  0.157
  C  C62  1  0.808000  0.083600  0.098360  1.0  0.1276
  C  C63  1  0.692000  0.416400  0.598360  1.0  0.1279
  C  C64  1  0.785600  0.661900  0.508090  1.0  0.003
  C  C65  1  0.646700  0.166100  0.255650  1.0  -0.152
  C  C66  1  0.164800  0.636300  0.316860  1.0  0.1242
  C  C67  1  0.369200  0.619800  0.285710  1.0  -0.1424
  C  C68  1  0.353300  0.833900  0.744350  1.0  -0.1534
  C  C69  1  0.472100  0.147700  0.147120  1.0  0.138
  C  C70  1  0.869200  0.119800  0.214290  1.0  -0.1476
  C  C71  1  0.630800  0.380200  0.714290  1.0  -0.1451
  C  C72  1  0.192000  0.916400  0.901640  1.0  0.1287
  C  C73  1  0.495900  0.677700  0.637290  1.0  0.1475
  C  C74  1  0.524800  0.168300  0.411750  1.0  -0.1053
  C  C75  1  0.101500  0.311600  0.522390  1.0  -0.1425
  C  C76  1  0.972100  0.647700  0.352880  1.0  0.1379
  C  C77  1  0.475200  0.831700  0.588250  1.0  -0.1062
  C  C78  1  0.760800  0.582900  0.400040  1.0  0.1463
  C  C79  1  0.039600  0.686500  0.227750  1.0  0.1576
  C  C80  1  0.335200  0.863700  0.816860  1.0  0.1224
  C  C81  1  0.493000  0.763300  0.533790  1.0  -0.0004
  C  C82  1  0.004100  0.822300  0.137290  1.0  0.1475
  C  C83  1  0.578500  0.126400  0.127570  1.0  -0.1695
  C  C84  1  0.007000  0.736700  0.033790  1.0  0.0006
  C  C85  1  0.452000  0.590000  0.325950  1.0  -0.0022
  C  C86  1  0.504100  0.322300  0.362710  1.0  0.1474
  C  C87  1  0.995900  0.177700  0.862710  1.0  0.147
  C  C88  1  0.078500  0.626400  0.372430  1.0  -0.1695
  C  C89  1  0.421500  0.873600  0.872430  1.0  -0.1704
  C  C90  1  0.548300  0.822500  0.780820  1.0  -0.2388
  C  C91  1  0.285600  0.161900  0.991910  1.0  0.0032
  C  C92  1  0.835200  0.363700  0.683140  1.0  0.1223
  C  C93  1  0.853300  0.333900  0.755650  1.0  -0.1535
  C  C94  1  0.398500  0.188400  0.022390  1.0  -0.1411
  C  C95  1  0.024800  0.668300  0.088250  1.0  -0.1052
  C  C96  1  0.548000  0.410000  0.674050  1.0  -0.0035
  C  C97  1  0.451700  0.177500  0.219180  1.0  -0.2404
  C  C98  1  0.714400  0.838100  0.008090  1.0  0.0043
  C  C99  1  0.993000  0.263300  0.966210  1.0  -0.0007
  C  C100  1  0.898500  0.688400  0.477610  1.0  -0.1416
  C  C101  1  0.048000  0.910000  0.825950  1.0  -0.0023
  C  C102  1  0.130800  0.880200  0.785710  1.0  -0.1431
  C  C103  1  0.214400  0.338100  0.491910  1.0  0.0038
  C  C104  1  0.308000  0.583600  0.401640  1.0  0.1284
  C  C105  1  0.048300  0.322500  0.719180  1.0  -0.2407
  C  C106  1  0.664800  0.136300  0.183140  1.0  0.1241
  C  C107  1  0.260800  0.082900  0.099960  1.0  0.1459
  C  C108  1  0.027900  0.352300  0.647120  1.0  0.1377
  C  C109  1  0.960400  0.313500  0.772250  1.0  0.1575
  C  C110  1  0.921500  0.373600  0.627570  1.0  -0.1707
  N  N111  1  0.724320  0.384160  0.665310  1.0  0.0294
  N  N112  1  0.881470  0.638610  0.408210  1.0  0.0458
  N  N113  1  0.005800  0.165960  0.934900  1.0  -0.3712
  N  N114  1  0.618530  0.861390  0.908210  1.0  0.0457
  N  N115  1  0.586620  0.433040  0.601890  1.0  -0.32
  N  N116  1  0.505800  0.665960  0.565100  1.0  -0.3712
  N  N117  1  0.977210  0.276770  0.846060  1.0  0.043
  N  N118  1  0.522790  0.223230  0.346060  1.0  0.0424
  N  N119  1  0.086620  0.933040  0.898110  1.0  -0.3203
  N  N120  1  0.299990  0.404840  0.540580  1.0  -0.3758
  N  N121  1  0.477210  0.776770  0.653940  1.0  0.0428
  N  N122  1  0.118530  0.361390  0.591790  1.0  0.0458
  N  N123  1  0.275680  0.615840  0.334690  1.0  0.0284
  N  N124  1  0.799990  0.904840  0.959420  1.0  -0.3761
  N  N125  1  0.494200  0.334040  0.434900  1.0  -0.3721
  N  N126  1  0.413380  0.566960  0.398110  1.0  -0.3208
  N  N127  1  0.381470  0.138610  0.091790  1.0  0.046
  N  N128  1  0.224320  0.884160  0.834690  1.0  0.0305
  N  N129  1  0.913380  0.066960  0.101890  1.0  -0.3205
  N  N130  1  0.022790  0.723230  0.153940  1.0  0.0421
  N  N131  1  0.700010  0.595160  0.459420  1.0  -0.3766
  N  N132  1  0.775680  0.115840  0.165310  1.0  0.0283
  N  N133  1  0.200010  0.095160  0.040580  1.0  -0.3764
  N  N134  1  0.994200  0.834040  0.065100  1.0  -0.3718
  N  N135  1  0.139000  0.674300  0.607780  1.0  0.8279
  N  N136  1  0.639000  0.174300  0.892220  1.0  0.828
  N  N137  1  0.861000  0.325700  0.392220  1.0  0.8282
  N  N138  1  0.361000  0.825700  0.107780  1.0  0.8285
  O  O139  1  0.120200  0.768100  0.610940  1.0  -0.5066
  O  O140  1  0.143700  0.629200  0.547410  1.0  -0.5084
  O  O141  1  0.153100  0.627400  0.666520  1.0  -0.442
  O  O142  1  0.620200  0.268100  0.889060  1.0  -0.5065
  O  O143  1  0.643700  0.129200  0.952590  1.0  -0.5072
  O  O144  1  0.653100  0.127400  0.833480  1.0  -0.4454
  O  O145  1  0.856300  0.370800  0.452590  1.0  -0.507
  O  O146  1  0.846900  0.372600  0.333480  1.0  -0.4438
  O  O147  1  0.879800  0.231900  0.389060  1.0  -0.5067
  O  O148  1  0.346900  0.872600  0.166520  1.0  -0.4408
  O  O149  1  0.356300  0.870800  0.047410  1.0  -0.508
  O  O150  1  0.379800  0.731900  0.110940  1.0  -0.5064
