# generated using pymatgen
data_CuH3(C2O)4
_symmetry_space_group_name_H-M   'P 1'
_cell_length_a   13.75700000
_cell_length_b   20.75300000
_cell_length_c   7.86000000
_cell_angle_alpha   90.00000000
_cell_angle_beta   91.66000000
_cell_angle_gamma   90.00000000
_symmetry_Int_Tables_number   1
_chemical_formula_structural   CuH3(C2O)4
_chemical_formula_sum   'Cu8 H24 C64 O32'
_cell_volume   2243.08055056
_cell_formula_units_Z   8
loop_
 _symmetry_equiv_pos_site_id
 _symmetry_equiv_pos_as_xyz
  1  'x, y, z'
loop_
 _atom_site_type_symbol
 _atom_site_label
 _atom_site_symmetry_multiplicity
 _atom_site_fract_x
 _atom_site_fract_y
 _atom_site_fract_z
 _atom_site_occupancy
 _atom_site_charge
  Cu  Cu1  1  0.084050  0.510810  0.077070  1.0  0.9038
  Cu  Cu2  1  0.503020  0.664550  0.534060  1.0  0.6481
  Cu  Cu3  1  0.915950  0.010810  0.422930  1.0  0.9057
  Cu  Cu4  1  0.496980  0.164550  0.965940  1.0  0.6487
  Cu  Cu5  1  0.915950  0.489190  0.922930  1.0  0.9048
  Cu  Cu6  1  0.496980  0.335450  0.465940  1.0  0.6443
  Cu  Cu7  1  0.084050  0.989190  0.577070  1.0  0.9043
  Cu  Cu8  1  0.503020  0.835450  0.034060  1.0  0.6434
  H  H9  1  0.145000  0.740000  0.285000  1.0  0.1293
  H  H10  1  0.955000  0.618100  0.507000  1.0  0.2049
  H  H11  1  0.950000  0.797400  0.348000  1.0  0.1093
  H  H12  1  0.812000  0.831600  0.230000  1.0  0.1944
  H  H13  1  0.754000  0.656500  0.064300  1.0  0.1202
  H  H14  1  0.227000  0.624700  0.662000  1.0  0.2321
  H  H15  1  0.855000  0.240000  0.215000  1.0  0.13
  H  H16  1  0.045000  0.118100  0.993000  1.0  0.2044
  H  H17  1  0.050000  0.297400  0.152000  1.0  0.1093
  H  H18  1  0.188000  0.331600  0.270000  1.0  0.1943
  H  H19  1  0.246000  0.156500  0.435700  1.0  0.1202
  H  H20  1  0.773000  0.124700  0.838000  1.0  0.232
  H  H21  1  0.855000  0.260000  0.715000  1.0  0.1303
  H  H22  1  0.045000  0.381900  0.493000  1.0  0.2029
  H  H23  1  0.050000  0.202600  0.652000  1.0  0.1092
  H  H24  1  0.188000  0.168400  0.770000  1.0  0.1953
  H  H25  1  0.246000  0.343500  0.935700  1.0  0.1198
  H  H26  1  0.773000  0.375300  0.338000  1.0  0.2321
  H  H27  1  0.145000  0.760000  0.785000  1.0  0.1294
  H  H28  1  0.955000  0.881900  0.007000  1.0  0.2036
  H  H29  1  0.950000  0.702600  0.848000  1.0  0.11
  H  H30  1  0.812000  0.668400  0.730000  1.0  0.1953
  H  H31  1  0.754000  0.843500  0.564300  1.0  0.1213
  H  H32  1  0.227000  0.875300  0.162000  1.0  0.2324
  C  C33  1  0.303700  0.702340  0.455100  1.0  0.686
  C  C34  1  0.199400  0.681660  0.477000  1.0  -0.1602
  C  C35  1  0.125200  0.706450  0.371100  1.0  -0.0514
  C  C36  1  0.011700  0.635230  0.503200  1.0  -0.0067
  C  C37  1  0.030400  0.682200  0.383400  1.0  0.0227
  C  C38  1  0.945600  0.706020  0.277700  1.0  0.0232
  C  C39  1  0.917500  0.769740  0.289800  1.0  -0.0999
  C  C40  1  0.829100  0.791500  0.219300  1.0  -0.0889
  C  C41  1  0.765700  0.748360  0.140800  1.0  -0.1816
  C  C42  1  0.795500  0.685400  0.120200  1.0  -0.0143
  C  C43  1  0.886100  0.663860  0.180800  1.0  -0.1029
  C  C44  1  0.921400  0.599410  0.121500  1.0  0.7121
  C  C45  1  0.057800  0.568630  0.757700  1.0  0.6933
  C  C46  1  0.083900  0.613470  0.617100  1.0  -0.1483
  C  C47  1  0.178500  0.635830  0.599200  1.0  -0.0195
  C  C48  1  0.666200  0.767200  0.075600  1.0  0.6645
  C  C49  1  0.696300  0.202340  0.044900  1.0  0.6881
  C  C50  1  0.800600  0.181660  0.023000  1.0  -0.1607
  C  C51  1  0.874800  0.206450  0.128900  1.0  -0.0547
  C  C52  1  0.988300  0.135230  0.996800  1.0  -0.0084
  C  C53  1  0.969600  0.182200  0.116600  1.0  0.0237
  C  C54  1  0.054400  0.206020  0.222300  1.0  0.0236
  C  C55  1  0.082500  0.269740  0.210200  1.0  -0.0993
  C  C56  1  0.170900  0.291500  0.280700  1.0  -0.0893
  C  C57  1  0.234300  0.248360  0.359200  1.0  -0.1814
  C  C58  1  0.204500  0.185400  0.379800  1.0  -0.0131
  C  C59  1  0.113900  0.163860  0.319200  1.0  -0.1027
  C  C60  1  0.078600  0.099410  0.378500  1.0  0.7128
  C  C61  1  0.942200  0.068630  0.742300  1.0  0.6932
  C  C62  1  0.916100  0.113470  0.882900  1.0  -0.1478
  C  C63  1  0.821500  0.135830  0.900800  1.0  -0.0181
  C  C64  1  0.333800  0.267200  0.424400  1.0  0.6606
  C  C65  1  0.696300  0.297660  0.544900  1.0  0.6873
  C  C66  1  0.800600  0.318340  0.523000  1.0  -0.1607
  C  C67  1  0.874800  0.293550  0.628900  1.0  -0.0549
  C  C68  1  0.988300  0.364770  0.496800  1.0  -0.008
  C  C69  1  0.969600  0.317800  0.616600  1.0  0.0235
  C  C70  1  0.054400  0.293980  0.722300  1.0  0.0247
  C  C71  1  0.082500  0.230260  0.710200  1.0  -0.0998
  C  C72  1  0.170900  0.208500  0.780700  1.0  -0.0878
  C  C73  1  0.234300  0.251640  0.859200  1.0  -0.1815
  C  C74  1  0.204500  0.314600  0.879800  1.0  -0.0149
  C  C75  1  0.113900  0.336140  0.819200  1.0  -0.1027
  C  C76  1  0.078600  0.400590  0.878500  1.0  0.7127
  C  C77  1  0.942200  0.431370  0.242300  1.0  0.6939
  C  C78  1  0.916100  0.386530  0.382900  1.0  -0.1473
  C  C79  1  0.821500  0.364170  0.400800  1.0  -0.0177
  C  C80  1  0.333800  0.232800  0.924400  1.0  0.6607
  C  C81  1  0.303700  0.797660  0.955100  1.0  0.6857
  C  C82  1  0.199400  0.818340  0.977000  1.0  -0.161
  C  C83  1  0.125200  0.793550  0.871100  1.0  -0.0526
  C  C84  1  0.011700  0.864770  0.003200  1.0  -0.0063
  C  C85  1  0.030400  0.817800  0.883400  1.0  0.0228
  C  C86  1  0.945600  0.793980  0.777700  1.0  0.024
  C  C87  1  0.917500  0.730260  0.789800  1.0  -0.1003
  C  C88  1  0.829100  0.708500  0.719300  1.0  -0.0876
  C  C89  1  0.765700  0.751640  0.640800  1.0  -0.1818
  C  C90  1  0.795500  0.814600  0.620200  1.0  -0.0161
  C  C91  1  0.886100  0.836140  0.680800  1.0  -0.1037
  C  C92  1  0.921400  0.900590  0.621500  1.0  0.7129
  C  C93  1  0.057800  0.931370  0.257700  1.0  0.6928
  C  C94  1  0.083900  0.886530  0.117100  1.0  -0.1476
  C  C95  1  0.178500  0.864170  0.099200  1.0  -0.0195
  C  C96  1  0.666200  0.732800  0.575600  1.0  0.6643
  O  O97  1  0.365760  0.660040  0.505600  1.0  -0.5948
  O  O98  1  0.322340  0.755720  0.394400  1.0  -0.4631
  O  O99  1  0.643390  0.827010  0.076300  1.0  -0.5864
  O  O100  1  0.607600  0.723830  0.031000  1.0  -0.574
  O  O101  1  0.862470  0.565710  0.033400  1.0  -0.5664
  O  O102  1  0.120310  0.559950  0.875400  1.0  -0.5496
  O  O103  1  0.008710  0.585250  0.152400  1.0  -0.5741
  O  O104  1  0.973600  0.545080  0.751800  1.0  -0.5601
  O  O105  1  0.634240  0.160040  0.994400  1.0  -0.594
  O  O106  1  0.677660  0.255720  0.105600  1.0  -0.466
  O  O107  1  0.356610  0.327010  0.423700  1.0  -0.5845
  O  O108  1  0.392400  0.223830  0.469000  1.0  -0.5736
  O  O109  1  0.137530  0.065710  0.466600  1.0  -0.565
  O  O110  1  0.879690  0.059950  0.624600  1.0  -0.5489
  O  O111  1  0.991290  0.085250  0.347600  1.0  -0.5732
  O  O112  1  0.026400  0.045080  0.748200  1.0  -0.5605
  O  O113  1  0.634240  0.339960  0.494400  1.0  -0.5972
  O  O114  1  0.677660  0.244280  0.605600  1.0  -0.4653
  O  O115  1  0.356610  0.172990  0.923700  1.0  -0.5848
  O  O116  1  0.392400  0.276170  0.969000  1.0  -0.573
  O  O117  1  0.137530  0.434290  0.966600  1.0  -0.5654
  O  O118  1  0.879690  0.440050  0.124600  1.0  -0.5488
  O  O119  1  0.991290  0.414750  0.847600  1.0  -0.5727
  O  O120  1  0.026400  0.454920  0.248200  1.0  -0.5609
  O  O121  1  0.365760  0.839960  0.005600  1.0  -0.5968
  O  O122  1  0.322340  0.744280  0.894400  1.0  -0.4646
  O  O123  1  0.643390  0.672990  0.576300  1.0  -0.5844
  O  O124  1  0.607600  0.776170  0.531000  1.0  -0.575
  O  O125  1  0.862470  0.934290  0.533400  1.0  -0.5667
  O  O126  1  0.120310  0.940050  0.375400  1.0  -0.5499
  O  O127  1  0.008710  0.914750  0.652400  1.0  -0.5741
  O  O128  1  0.973600  0.954920  0.251800  1.0  -0.5598
