# generated using pymatgen
data_Ni2H21C34(N3O4)2
_symmetry_space_group_name_H-M   'P 1'
_cell_length_a   22.12800000
_cell_length_b   14.58170000
_cell_length_c   28.08300000
_cell_angle_alpha   90.00000000
_cell_angle_beta   116.31600000
_cell_angle_gamma   90.00000000
_symmetry_Int_Tables_number   1
_chemical_formula_structural   Ni2H21C34(N3O4)2
_chemical_formula_sum   'Ni16 H168 C272 N48 O64'
_cell_volume   8122.27298127
_cell_formula_units_Z   8
loop_
 _symmetry_equiv_pos_site_id
 _symmetry_equiv_pos_as_xyz
  1  'x, y, z'
loop_
 _atom_site_type_symbol
 _atom_site_label
 _atom_site_symmetry_multiplicity
 _atom_site_fract_x
 _atom_site_fract_y
 _atom_site_fract_z
 _atom_site_occupancy
 _atom_site_charge
  Ni  Ni1  1  0.746000  0.328400  0.744280  1.0  0.6062
  Ni  Ni2  1  0.781020  0.505770  0.460590  1.0  0.6134
  Ni  Ni3  1  0.754000  0.828400  0.755720  1.0  0.607
  Ni  Ni4  1  0.718980  0.005770  0.039410  1.0  0.6103
  Ni  Ni5  1  0.254000  0.671600  0.255720  1.0  0.6063
  Ni  Ni6  1  0.218980  0.494230  0.539410  1.0  0.6098
  Ni  Ni7  1  0.246000  0.171600  0.244280  1.0  0.6057
  Ni  Ni8  1  0.281020  0.994230  0.960590  1.0  0.6128
  Ni  Ni9  1  0.246000  0.828400  0.744280  1.0  0.6062
  Ni  Ni10  1  0.281020  0.005770  0.460590  1.0  0.6134
  Ni  Ni11  1  0.254000  0.328400  0.755720  1.0  0.607
  Ni  Ni12  1  0.218980  0.505770  0.039410  1.0  0.6103
  Ni  Ni13  1  0.754000  0.171600  0.255720  1.0  0.6063
  Ni  Ni14  1  0.718980  0.994230  0.539410  1.0  0.6098
  Ni  Ni15  1  0.746000  0.671600  0.244280  1.0  0.6057
  Ni  Ni16  1  0.781020  0.494230  0.960590  1.0  0.6128
  H  H17  1  0.786100  0.579500  0.694600  1.0  0.1147
  H  H18  1  0.920800  0.715800  0.661500  1.0  0.1177
  H  H19  1  0.050500  0.633600  0.710500  1.0  0.1133
  H  H20  1  0.145500  0.616300  0.696600  1.0  0.1001
  H  H21  1  0.032600  0.500500  0.555000  1.0  0.1125
  H  H22  1  0.683200  0.591100  0.587400  1.0  0.1355
  H  H23  1  0.631400  0.482000  0.446500  1.0  0.1051
  H  H24  1  0.523300  0.498500  0.427700  1.0  0.1224
  H  H25  1  0.585900  0.529100  0.584100  1.0  0.1289
  H  H26  1  0.000100  0.327000  0.861200  1.0  0.1409
  H  H27  1  0.906700  0.359000  0.775000  1.0  0.1078
  H  H28  1  0.829100  0.292800  0.870900  1.0  0.1011
  H  H29  1  0.104000  0.186100  0.024500  1.0  0.1226
  H  H30  1  0.045000  0.226000  0.936000  1.0  0.1185
  H  H31  1  0.993600  0.167700  0.123900  1.0  0.1441
  H  H32  1  0.166100  0.215200  0.118400  1.0  0.1076
  H  H33  1  0.895000  0.331000  0.960900  1.0  0.1138
  H  H34  1  0.949000  0.286000  0.048200  1.0  0.0948
  H  H35  1  0.911700  0.450000  0.649800  1.0  0.1347
  H  H36  1  0.090000  0.144000  0.213200  1.0  0.1118
  H  H37  1  0.774000  0.585000  0.562000  1.0  0.2481
  H  H38  1  0.713900  0.079500  0.805400  1.0  0.1138
  H  H39  1  0.579200  0.215800  0.838500  1.0  0.1177
  H  H40  1  0.449500  0.133600  0.789500  1.0  0.1137
  H  H41  1  0.354500  0.116300  0.803400  1.0  0.0999
  H  H42  1  0.467400  0.000500  0.945000  1.0  0.112
  H  H43  1  0.816800  0.091100  0.912600  1.0  0.1363
  H  H44  1  0.868600  0.982000  0.053500  1.0  0.1069
  H  H45  1  0.976700  0.998500  0.072300  1.0  0.1221
  H  H46  1  0.914100  0.029100  0.915900  1.0  0.1286
  H  H47  1  0.499900  0.827000  0.638800  1.0  0.1413
  H  H48  1  0.593300  0.859000  0.725000  1.0  0.1065
  H  H49  1  0.670900  0.792800  0.629100  1.0  0.1008
  H  H50  1  0.396000  0.686100  0.475500  1.0  0.1211
  H  H51  1  0.455000  0.726000  0.564000  1.0  0.1183
  H  H52  1  0.506400  0.667700  0.376100  1.0  0.1433
  H  H53  1  0.333900  0.715200  0.381600  1.0  0.1089
  H  H54  1  0.605000  0.831000  0.539100  1.0  0.1146
  H  H55  1  0.551000  0.786000  0.451800  1.0  0.0958
  H  H56  1  0.588300  0.950000  0.850200  1.0  0.1338
  H  H57  1  0.410000  0.644000  0.286800  1.0  0.1104
  H  H58  1  0.726000  0.085000  0.938000  1.0  0.2459
  H  H59  1  0.213900  0.420500  0.305400  1.0  0.1139
  H  H60  1  0.079200  0.284200  0.338500  1.0  0.1174
  H  H61  1  0.949500  0.366400  0.289500  1.0  0.1139
  H  H62  1  0.854500  0.383700  0.303400  1.0  0.1
  H  H63  1  0.967400  0.499500  0.445000  1.0  0.112
  H  H64  1  0.316800  0.408900  0.412600  1.0  0.1358
  H  H65  1  0.368600  0.518000  0.553500  1.0  0.1065
  H  H66  1  0.476700  0.501500  0.572300  1.0  0.1217
  H  H67  1  0.414100  0.470900  0.415900  1.0  0.1286
  H  H68  1  0.999900  0.673000  0.138800  1.0  0.1427
  H  H69  1  0.093300  0.641000  0.225000  1.0  0.1058
  H  H70  1  0.170900  0.707200  0.129100  1.0  0.1008
  H  H71  1  0.896000  0.813900  0.975500  1.0  0.1222
  H  H72  1  0.955000  0.774000  0.064000  1.0  0.1179
  H  H73  1  0.006400  0.832300  0.876100  1.0  0.1435
  H  H74  1  0.833900  0.784800  0.881600  1.0  0.109
  H  H75  1  0.105000  0.669000  0.039100  1.0  0.1143
  H  H76  1  0.051000  0.714000  0.951800  1.0  0.0961
  H  H77  1  0.088300  0.550000  0.350200  1.0  0.1321
  H  H78  1  0.910000  0.856000  0.786800  1.0  0.111
  H  H79  1  0.226000  0.415000  0.438000  1.0  0.2455
  H  H80  1  0.286100  0.920500  0.194600  1.0  0.1146
  H  H81  1  0.420800  0.784200  0.161500  1.0  0.1179
  H  H82  1  0.550500  0.866400  0.210500  1.0  0.1136
  H  H83  1  0.645500  0.883700  0.196600  1.0  0.1001
  H  H84  1  0.532600  0.999500  0.055000  1.0  0.1123
  H  H85  1  0.183200  0.908900  0.087400  1.0  0.1354
  H  H86  1  0.131400  0.018000  0.946500  1.0  0.1057
  H  H87  1  0.023300  0.001500  0.927700  1.0  0.1224
  H  H88  1  0.085900  0.970900  0.084100  1.0  0.1293
  H  H89  1  0.500100  0.173000  0.361200  1.0  0.1418
  H  H90  1  0.406700  0.141000  0.275000  1.0  0.1061
  H  H91  1  0.329100  0.207200  0.370900  1.0  0.1008
  H  H92  1  0.604000  0.313900  0.524500  1.0  0.1225
  H  H93  1  0.545000  0.274000  0.436000  1.0  0.1185
  H  H94  1  0.493600  0.332300  0.623900  1.0  0.1446
  H  H95  1  0.666100  0.284800  0.618400  1.0  0.1076
  H  H96  1  0.395000  0.169000  0.460900  1.0  0.114
  H  H97  1  0.449000  0.214000  0.548200  1.0  0.0948
  H  H98  1  0.411700  0.050000  0.149800  1.0  0.1325
  H  H99  1  0.590000  0.356000  0.713200  1.0  0.1115
  H  H100  1  0.274000  0.915000  0.062000  1.0  0.2483
  H  H101  1  0.286100  0.079500  0.694600  1.0  0.1147
  H  H102  1  0.420800  0.215800  0.661500  1.0  0.1177
  H  H103  1  0.550500  0.133600  0.710500  1.0  0.1133
  H  H104  1  0.645500  0.116300  0.696600  1.0  0.1001
  H  H105  1  0.532600  0.000500  0.555000  1.0  0.1125
  H  H106  1  0.183200  0.091100  0.587400  1.0  0.1355
  H  H107  1  0.131400  0.982000  0.446500  1.0  0.1051
  H  H108  1  0.023300  0.998500  0.427700  1.0  0.1224
  H  H109  1  0.085900  0.029100  0.584100  1.0  0.1289
  H  H110  1  0.500100  0.827000  0.861200  1.0  0.1409
  H  H111  1  0.406700  0.859000  0.775000  1.0  0.1078
  H  H112  1  0.329100  0.792800  0.870900  1.0  0.1011
  H  H113  1  0.604000  0.686100  0.024500  1.0  0.1226
  H  H114  1  0.545000  0.726000  0.936000  1.0  0.1185
  H  H115  1  0.493600  0.667700  0.123900  1.0  0.1441
  H  H116  1  0.666100  0.715200  0.118400  1.0  0.1076
  H  H117  1  0.395000  0.831000  0.960900  1.0  0.1138
  H  H118  1  0.449000  0.786000  0.048200  1.0  0.0954
  H  H119  1  0.411700  0.950000  0.649800  1.0  0.1347
  H  H120  1  0.590000  0.644000  0.213200  1.0  0.1118
  H  H121  1  0.274000  0.085000  0.562000  1.0  0.2481
  H  H122  1  0.213900  0.579500  0.805400  1.0  0.1138
  H  H123  1  0.079200  0.715800  0.838500  1.0  0.1177
  H  H124  1  0.949500  0.633600  0.789500  1.0  0.1137
  H  H125  1  0.854500  0.616300  0.803400  1.0  0.0999
  H  H126  1  0.967400  0.500500  0.945000  1.0  0.112
  H  H127  1  0.316800  0.591100  0.912600  1.0  0.1363
  H  H128  1  0.368600  0.482000  0.053500  1.0  0.1069
  H  H129  1  0.476700  0.498500  0.072300  1.0  0.1221
  H  H130  1  0.414100  0.529100  0.915900  1.0  0.1286
  H  H131  1  0.999900  0.327000  0.638800  1.0  0.1413
  H  H132  1  0.093300  0.359000  0.725000  1.0  0.1065
  H  H133  1  0.170900  0.292800  0.629100  1.0  0.1008
  H  H134  1  0.896000  0.186100  0.475500  1.0  0.1211
  H  H135  1  0.955000  0.226000  0.564000  1.0  0.1183
  H  H136  1  0.006400  0.167700  0.376100  1.0  0.1433
  H  H137  1  0.833900  0.215200  0.381600  1.0  0.1089
  H  H138  1  0.105000  0.331000  0.539100  1.0  0.1146
  H  H139  1  0.051000  0.286000  0.451800  1.0  0.0965
  H  H140  1  0.088300  0.450000  0.850200  1.0  0.1338
  H  H141  1  0.910000  0.144000  0.286800  1.0  0.1104
  H  H142  1  0.226000  0.585000  0.938000  1.0  0.2459
  H  H143  1  0.713900  0.920500  0.305400  1.0  0.1139
  H  H144  1  0.579200  0.784200  0.338500  1.0  0.1174
  H  H145  1  0.449500  0.866400  0.289500  1.0  0.1139
  H  H146  1  0.354500  0.883700  0.303400  1.0  0.1
  H  H147  1  0.467400  0.999500  0.445000  1.0  0.112
  H  H148  1  0.816800  0.908900  0.412600  1.0  0.1358
  H  H149  1  0.868600  0.018000  0.553500  1.0  0.1065
  H  H150  1  0.976700  0.001500  0.572300  1.0  0.1217
  H  H151  1  0.914100  0.970900  0.415900  1.0  0.1286
  H  H152  1  0.499900  0.173000  0.138800  1.0  0.1427
  H  H153  1  0.593300  0.141000  0.225000  1.0  0.1058
  H  H154  1  0.670900  0.207200  0.129100  1.0  0.1008
  H  H155  1  0.396000  0.313900  0.975500  1.0  0.1222
  H  H156  1  0.455000  0.274000  0.064000  1.0  0.1179
  H  H157  1  0.506400  0.332300  0.876100  1.0  0.1435
  H  H158  1  0.333900  0.284800  0.881600  1.0  0.109
  H  H159  1  0.605000  0.169000  0.039100  1.0  0.1143
  H  H160  1  0.551000  0.214000  0.951800  1.0  0.0968
  H  H161  1  0.588300  0.050000  0.350200  1.0  0.1321
  H  H162  1  0.410000  0.356000  0.786800  1.0  0.111
  H  H163  1  0.726000  0.915000  0.438000  1.0  0.2455
  H  H164  1  0.786100  0.420500  0.194600  1.0  0.1146
  H  H165  1  0.920800  0.284200  0.161500  1.0  0.1179
  H  H166  1  0.050500  0.366400  0.210500  1.0  0.1136
  H  H167  1  0.145500  0.383700  0.196600  1.0  0.1001
  H  H168  1  0.032600  0.499500  0.055000  1.0  0.1123
  H  H169  1  0.683200  0.408900  0.087400  1.0  0.1354
  H  H170  1  0.631400  0.518000  0.946500  1.0  0.1057
  H  H171  1  0.523300  0.501500  0.927700  1.0  0.1224
  H  H172  1  0.585900  0.470900  0.084100  1.0  0.1293
  H  H173  1  0.000100  0.673000  0.361200  1.0  0.1418
  H  H174  1  0.906700  0.641000  0.275000  1.0  0.1061
  H  H175  1  0.829100  0.707200  0.370900  1.0  0.1008
  H  H176  1  0.104000  0.813900  0.524500  1.0  0.1225
  H  H177  1  0.045000  0.774000  0.436000  1.0  0.1185
  H  H178  1  0.993600  0.832300  0.623900  1.0  0.1446
  H  H179  1  0.166100  0.784800  0.618400  1.0  0.1076
  H  H180  1  0.895000  0.669000  0.460900  1.0  0.114
  H  H181  1  0.949000  0.714000  0.548200  1.0  0.0955
  H  H182  1  0.911700  0.550000  0.149800  1.0  0.1325
  H  H183  1  0.090000  0.856000  0.713200  1.0  0.1115
  H  H184  1  0.774000  0.415000  0.062000  1.0  0.2483
  C  C185  1  0.843600  0.496800  0.673770  1.0  -0.1474
  C  C186  1  0.820600  0.579400  0.684210  1.0  -0.036
  C  C187  1  0.848800  0.662400  0.679240  1.0  -0.1859
  C  C188  1  0.901300  0.660900  0.664440  1.0  -0.0732
  C  C189  1  0.924800  0.579300  0.654090  1.0  -0.051
  C  C190  1  0.984000  0.575500  0.641290  1.0  -0.0463
  C  C191  1  0.046900  0.606400  0.679370  1.0  -0.0899
  C  C192  1  0.103700  0.596700  0.670880  1.0  -0.0354
  C  C193  1  0.098500  0.557700  0.624020  1.0  -0.1428
  C  C194  1  0.036200  0.527200  0.586220  1.0  -0.0081
  C  C195  1  0.978600  0.536300  0.594770  1.0  -0.0774
  C  C196  1  0.813300  0.409600  0.681190  1.0  0.7082
  C  C197  1  0.822200  0.749300  0.691680  1.0  0.7382
  C  C198  1  0.159900  0.546400  0.614640  1.0  0.7053
  C  C199  1  0.913000  0.496300  0.554190  1.0  0.6827
  C  C200  1  0.684100  0.569000  0.556700  1.0  -0.133
  C  C201  1  0.737800  0.567200  0.545700  1.0  0.1191
  C  C202  1  0.656600  0.509500  0.479200  1.0  0.1188
  C  C203  1  0.513800  0.499200  0.456840  1.0  -0.1397
  C  C204  1  0.564700  0.516600  0.506590  1.0  0.1215
  C  C205  1  0.551500  0.517500  0.550360  1.0  -0.1517
  C  C206  1  0.954400  0.323900  0.852730  1.0  -0.1531
  C  C207  1  0.902600  0.341400  0.805220  1.0  0.0413
  C  C208  1  0.859700  0.305200  0.857390  1.0  0.1575
  C  C209  1  0.963300  0.275600  0.941030  1.0  0.1524
  C  C210  1  0.934700  0.292900  0.974930  1.0  -0.1367
  C  C211  1  0.033000  0.226400  0.046180  1.0  0.1864
  C  C212  1  0.061300  0.212100  0.012080  1.0  -0.1456
  C  C213  1  0.026200  0.236300  0.959250  1.0  -0.1553
  C  C214  1  0.039300  0.174000  0.133350  1.0  -0.1398
  C  C215  1  0.090900  0.158300  0.181400  1.0  0.0194
  C  C216  1  0.134800  0.200200  0.131000  1.0  0.1404
  C  C217  1  0.970100  0.267700  0.028360  1.0  -0.0997
  C  C218  1  0.894900  0.498400  0.658210  1.0  -0.0546
  C  C219  1  0.656400  0.996800  0.826230  1.0  -0.1469
  C  C220  1  0.679400  0.079400  0.815790  1.0  -0.0358
  C  C221  1  0.651200  0.162400  0.820760  1.0  -0.1861
  C  C222  1  0.598700  0.160900  0.835560  1.0  -0.0735
  C  C223  1  0.575200  0.079300  0.845910  1.0  -0.0492
  C  C224  1  0.516000  0.075500  0.858710  1.0  -0.0474
  C  C225  1  0.453100  0.106400  0.820630  1.0  -0.0901
  C  C226  1  0.396300  0.096700  0.829120  1.0  -0.0345
  C  C227  1  0.401500  0.057700  0.875980  1.0  -0.145
  C  C228  1  0.463800  0.027200  0.913780  1.0  -0.009
  C  C229  1  0.521400  0.036300  0.905230  1.0  -0.0763
  C  C230  1  0.686700  0.909600  0.818810  1.0  0.7075
  C  C231  1  0.677800  0.249300  0.808320  1.0  0.7382
  C  C232  1  0.340100  0.046400  0.885360  1.0  0.7032
  C  C233  1  0.587000  0.996300  0.945810  1.0  0.6827
  C  C234  1  0.815900  0.069000  0.943300  1.0  -0.1338
  C  C235  1  0.762200  0.067200  0.954300  1.0  0.1191
  C  C236  1  0.843400  0.009500  0.020800  1.0  0.118
  C  C237  1  0.986200  0.999200  0.043160  1.0  -0.1398
  C  C238  1  0.935300  0.016600  0.993410  1.0  0.1208
  C  C239  1  0.948500  0.017500  0.949640  1.0  -0.1502
  C  C240  1  0.545600  0.823900  0.647270  1.0  -0.1541
  C  C241  1  0.597400  0.841400  0.694780  1.0  0.0401
  C  C242  1  0.640300  0.805200  0.642610  1.0  0.158
  C  C243  1  0.536700  0.775600  0.558970  1.0  0.151
  C  C244  1  0.565300  0.792900  0.525070  1.0  -0.1367
  C  C245  1  0.467000  0.726400  0.453820  1.0  0.1854
  C  C246  1  0.438700  0.712100  0.487920  1.0  -0.1452
  C  C247  1  0.473800  0.736300  0.540750  1.0  -0.1525
  C  C248  1  0.460700  0.674000  0.366650  1.0  -0.141
  C  C249  1  0.409100  0.658300  0.318600  1.0  0.0192
  C  C250  1  0.365200  0.700200  0.369000  1.0  0.1369
  C  C251  1  0.529900  0.767700  0.471640  1.0  -0.1002
  C  C252  1  0.605100  0.998400  0.841790  1.0  -0.0533
  C  C253  1  0.156400  0.503200  0.326230  1.0  -0.1473
  C  C254  1  0.179400  0.420600  0.315790  1.0  -0.036
  C  C255  1  0.151200  0.337600  0.320760  1.0  -0.1864
  C  C256  1  0.098700  0.339100  0.335560  1.0  -0.073
  C  C257  1  0.075200  0.420700  0.345910  1.0  -0.0496
  C  C258  1  0.016000  0.424500  0.358710  1.0  -0.0475
  C  C259  1  0.953100  0.393600  0.320630  1.0  -0.0897
  C  C260  1  0.896300  0.403300  0.329120  1.0  -0.0345
  C  C261  1  0.901500  0.442300  0.375980  1.0  -0.145
  C  C262  1  0.963800  0.472800  0.413780  1.0  -0.0093
  C  C263  1  0.021400  0.463700  0.405230  1.0  -0.0764
  C  C264  1  0.186700  0.590400  0.318810  1.0  0.7075
  C  C265  1  0.177800  0.250700  0.308320  1.0  0.7366
  C  C266  1  0.840100  0.453600  0.385360  1.0  0.703
  C  C267  1  0.087000  0.503700  0.445810  1.0  0.6821
  C  C268  1  0.315900  0.431000  0.443300  1.0  -0.1345
  C  C269  1  0.262200  0.432800  0.454300  1.0  0.1195
  C  C270  1  0.343400  0.490500  0.520800  1.0  0.1173
  C  C271  1  0.486200  0.500800  0.543160  1.0  -0.1397
  C  C272  1  0.435300  0.483400  0.493410  1.0  0.121
  C  C273  1  0.448500  0.482500  0.449640  1.0  -0.15
  C  C274  1  0.045600  0.676100  0.147270  1.0  -0.154
  C  C275  1  0.097400  0.658600  0.194780  1.0  0.0405
  C  C276  1  0.140300  0.694800  0.142610  1.0  0.1578
  C  C277  1  0.036700  0.724400  0.058970  1.0  0.151
  C  C278  1  0.065300  0.707100  0.025070  1.0  -0.1368
  C  C279  1  0.967000  0.773600  0.953820  1.0  0.1854
  C  C280  1  0.938700  0.787900  0.987920  1.0  -0.1449
  C  C281  1  0.973800  0.763700  0.040750  1.0  -0.1524
  C  C282  1  0.960700  0.826000  0.866650  1.0  -0.1406
  C  C283  1  0.909100  0.841700  0.818600  1.0  0.0196
  C  C284  1  0.865200  0.799800  0.869000  1.0  0.1372
  C  C285  1  0.029900  0.732300  0.971640  1.0  -0.1003
  C  C286  1  0.105100  0.501600  0.341790  1.0  -0.0539
  C  C287  1  0.343600  0.003200  0.173770  1.0  -0.1482
  C  C288  1  0.320600  0.920600  0.184210  1.0  -0.036
  C  C289  1  0.348800  0.837600  0.179240  1.0  -0.1867
  C  C290  1  0.401300  0.839100  0.164440  1.0  -0.0727
  C  C291  1  0.424800  0.920700  0.154090  1.0  -0.0513
  C  C292  1  0.484000  0.924500  0.141290  1.0  -0.0465
  C  C293  1  0.546900  0.893600  0.179370  1.0  -0.0897
  C  C294  1  0.603700  0.903300  0.170880  1.0  -0.0351
  C  C295  1  0.598500  0.942300  0.124020  1.0  -0.143
  C  C296  1  0.536200  0.972800  0.086220  1.0  -0.0082
  C  C297  1  0.478600  0.963700  0.094770  1.0  -0.0771
  C  C298  1  0.313300  0.090400  0.181190  1.0  0.7085
  C  C299  1  0.322200  0.750700  0.191680  1.0  0.7372
  C  C300  1  0.659900  0.953600  0.114640  1.0  0.7057
  C  C301  1  0.413000  0.003700  0.054190  1.0  0.6829
  C  C302  1  0.184100  0.931000  0.056700  1.0  -0.1328
  C  C303  1  0.237800  0.932800  0.045700  1.0  0.1187
  C  C304  1  0.156600  0.990500  0.979200  1.0  0.119
  C  C305  1  0.013800  0.000800  0.956840  1.0  -0.1409
  C  C306  1  0.064700  0.983400  0.006590  1.0  0.1217
  C  C307  1  0.051500  0.982500  0.050360  1.0  -0.1514
  C  C308  1  0.454400  0.176100  0.352730  1.0  -0.1525
  C  C309  1  0.402600  0.158600  0.305220  1.0  0.0403
  C  C310  1  0.359700  0.194800  0.357390  1.0  0.1572
  C  C311  1  0.463300  0.224400  0.441030  1.0  0.1522
  C  C312  1  0.434700  0.207100  0.474930  1.0  -0.1369
  C  C313  1  0.533000  0.273600  0.546180  1.0  0.1864
  C  C314  1  0.561300  0.287900  0.512080  1.0  -0.1455
  C  C315  1  0.526200  0.263700  0.459250  1.0  -0.1561
  C  C316  1  0.539300  0.326000  0.633350  1.0  -0.1415
  C  C317  1  0.590900  0.341700  0.681400  1.0  0.02
  C  C318  1  0.634800  0.299800  0.631000  1.0  0.1407
  C  C319  1  0.470100  0.232300  0.528360  1.0  -0.1004
  C  C320  1  0.394900  0.001600  0.158210  1.0  -0.0538
  C  C321  1  0.343600  0.996800  0.673770  1.0  -0.1474
  C  C322  1  0.320600  0.079400  0.684210  1.0  -0.036
  C  C323  1  0.348800  0.162400  0.679240  1.0  -0.1859
  C  C324  1  0.401300  0.160900  0.664440  1.0  -0.0732
  C  C325  1  0.424800  0.079300  0.654090  1.0  -0.051
  C  C326  1  0.484000  0.075500  0.641290  1.0  -0.0463
  C  C327  1  0.546900  0.106400  0.679370  1.0  -0.0899
  C  C328  1  0.603700  0.096700  0.670880  1.0  -0.0354
  C  C329  1  0.598500  0.057700  0.624020  1.0  -0.1428
  C  C330  1  0.536200  0.027200  0.586220  1.0  -0.0081
  C  C331  1  0.478600  0.036300  0.594770  1.0  -0.0774
  C  C332  1  0.313300  0.909600  0.681190  1.0  0.7082
  C  C333  1  0.322200  0.249300  0.691680  1.0  0.7382
  C  C334  1  0.659900  0.046400  0.614640  1.0  0.7053
  C  C335  1  0.413000  0.996300  0.554190  1.0  0.6827
  C  C336  1  0.184100  0.069000  0.556700  1.0  -0.133
  C  C337  1  0.237800  0.067200  0.545700  1.0  0.1191
  C  C338  1  0.156600  0.009500  0.479200  1.0  0.1188
  C  C339  1  0.013800  0.999200  0.456840  1.0  -0.1397
  C  C340  1  0.064700  0.016600  0.506590  1.0  0.1215
  C  C341  1  0.051500  0.017500  0.550360  1.0  -0.1517
  C  C342  1  0.454400  0.823900  0.852730  1.0  -0.1531
  C  C343  1  0.402600  0.841400  0.805220  1.0  0.0413
  C  C344  1  0.359700  0.805200  0.857390  1.0  0.1575
  C  C345  1  0.463300  0.775600  0.941030  1.0  0.1524
  C  C346  1  0.434700  0.792900  0.974930  1.0  -0.1367
  C  C347  1  0.533000  0.726400  0.046180  1.0  0.1864
  C  C348  1  0.561300  0.712100  0.012080  1.0  -0.1456
  C  C349  1  0.526200  0.736300  0.959250  1.0  -0.1553
  C  C350  1  0.539300  0.674000  0.133350  1.0  -0.1398
  C  C351  1  0.590900  0.658300  0.181400  1.0  0.0194
  C  C352  1  0.634800  0.700200  0.131000  1.0  0.1404
  C  C353  1  0.470100  0.767700  0.028360  1.0  -0.0997
  C  C354  1  0.394900  0.998400  0.658210  1.0  -0.0546
  C  C355  1  0.156400  0.496800  0.826230  1.0  -0.1469
  C  C356  1  0.179400  0.579400  0.815790  1.0  -0.0358
  C  C357  1  0.151200  0.662400  0.820760  1.0  -0.1861
  C  C358  1  0.098700  0.660900  0.835560  1.0  -0.0735
  C  C359  1  0.075200  0.579300  0.845910  1.0  -0.0492
  C  C360  1  0.016000  0.575500  0.858710  1.0  -0.0474
  C  C361  1  0.953100  0.606400  0.820630  1.0  -0.0901
  C  C362  1  0.896300  0.596700  0.829120  1.0  -0.0345
  C  C363  1  0.901500  0.557700  0.875980  1.0  -0.145
  C  C364  1  0.963800  0.527200  0.913780  1.0  -0.009
  C  C365  1  0.021400  0.536300  0.905230  1.0  -0.0763
  C  C366  1  0.186700  0.409600  0.818810  1.0  0.7075
  C  C367  1  0.177800  0.749300  0.808320  1.0  0.7382
  C  C368  1  0.840100  0.546400  0.885360  1.0  0.7032
  C  C369  1  0.087000  0.496300  0.945810  1.0  0.6827
  C  C370  1  0.315900  0.569000  0.943300  1.0  -0.1338
  C  C371  1  0.262200  0.567200  0.954300  1.0  0.1191
  C  C372  1  0.343400  0.509500  0.020800  1.0  0.118
  C  C373  1  0.486200  0.499200  0.043160  1.0  -0.1398
  C  C374  1  0.435300  0.516600  0.993410  1.0  0.1208
  C  C375  1  0.448500  0.517500  0.949640  1.0  -0.1502
  C  C376  1  0.045600  0.323900  0.647270  1.0  -0.1541
  C  C377  1  0.097400  0.341400  0.694780  1.0  0.0401
  C  C378  1  0.140300  0.305200  0.642610  1.0  0.158
  C  C379  1  0.036700  0.275600  0.558970  1.0  0.151
  C  C380  1  0.065300  0.292900  0.525070  1.0  -0.1367
  C  C381  1  0.967000  0.226400  0.453820  1.0  0.1854
  C  C382  1  0.938700  0.212100  0.487920  1.0  -0.1452
  C  C383  1  0.973800  0.236300  0.540750  1.0  -0.1525
  C  C384  1  0.960700  0.174000  0.366650  1.0  -0.141
  C  C385  1  0.909100  0.158300  0.318600  1.0  0.0192
  C  C386  1  0.865200  0.200200  0.369000  1.0  0.1369
  C  C387  1  0.029900  0.267700  0.471640  1.0  -0.1002
  C  C388  1  0.105100  0.498400  0.841790  1.0  -0.0533
  C  C389  1  0.656400  0.003200  0.326230  1.0  -0.1473
  C  C390  1  0.679400  0.920600  0.315790  1.0  -0.036
  C  C391  1  0.651200  0.837600  0.320760  1.0  -0.1864
  C  C392  1  0.598700  0.839100  0.335560  1.0  -0.073
  C  C393  1  0.575200  0.920700  0.345910  1.0  -0.0496
  C  C394  1  0.516000  0.924500  0.358710  1.0  -0.0475
  C  C395  1  0.453100  0.893600  0.320630  1.0  -0.0897
  C  C396  1  0.396300  0.903300  0.329120  1.0  -0.0345
  C  C397  1  0.401500  0.942300  0.375980  1.0  -0.145
  C  C398  1  0.463800  0.972800  0.413780  1.0  -0.0093
  C  C399  1  0.521400  0.963700  0.405230  1.0  -0.0764
  C  C400  1  0.686700  0.090400  0.318810  1.0  0.7075
  C  C401  1  0.677800  0.750700  0.308320  1.0  0.7366
  C  C402  1  0.340100  0.953600  0.385360  1.0  0.703
  C  C403  1  0.587000  0.003700  0.445810  1.0  0.6821
  C  C404  1  0.815900  0.931000  0.443300  1.0  -0.1345
  C  C405  1  0.762200  0.932800  0.454300  1.0  0.1195
  C  C406  1  0.843400  0.990500  0.520800  1.0  0.1173
  C  C407  1  0.986200  0.000800  0.543160  1.0  -0.1397
  C  C408  1  0.935300  0.983400  0.493410  1.0  0.121
  C  C409  1  0.948500  0.982500  0.449640  1.0  -0.15
  C  C410  1  0.545600  0.176100  0.147270  1.0  -0.154
  C  C411  1  0.597400  0.158600  0.194780  1.0  0.0405
  C  C412  1  0.640300  0.194800  0.142610  1.0  0.1578
  C  C413  1  0.536700  0.224400  0.058970  1.0  0.151
  C  C414  1  0.565300  0.207100  0.025070  1.0  -0.1368
  C  C415  1  0.467000  0.273600  0.953820  1.0  0.1854
  C  C416  1  0.438700  0.287900  0.987920  1.0  -0.1449
  C  C417  1  0.473800  0.263700  0.040750  1.0  -0.1524
  C  C418  1  0.460700  0.326000  0.866650  1.0  -0.1406
  C  C419  1  0.409100  0.341700  0.818600  1.0  0.0196
  C  C420  1  0.365200  0.299800  0.869000  1.0  0.1372
  C  C421  1  0.529900  0.232300  0.971640  1.0  -0.1003
  C  C422  1  0.605100  0.001600  0.341790  1.0  -0.0539
  C  C423  1  0.843600  0.503200  0.173770  1.0  -0.1482
  C  C424  1  0.820600  0.420600  0.184210  1.0  -0.036
  C  C425  1  0.848800  0.337600  0.179240  1.0  -0.1867
  C  C426  1  0.901300  0.339100  0.164440  1.0  -0.0727
  C  C427  1  0.924800  0.420700  0.154090  1.0  -0.0513
  C  C428  1  0.984000  0.424500  0.141290  1.0  -0.0465
  C  C429  1  0.046900  0.393600  0.179370  1.0  -0.0897
  C  C430  1  0.103700  0.403300  0.170880  1.0  -0.0351
  C  C431  1  0.098500  0.442300  0.124020  1.0  -0.143
  C  C432  1  0.036200  0.472800  0.086220  1.0  -0.0082
  C  C433  1  0.978600  0.463700  0.094770  1.0  -0.0771
  C  C434  1  0.813300  0.590400  0.181190  1.0  0.7085
  C  C435  1  0.822200  0.250700  0.191680  1.0  0.7372
  C  C436  1  0.159900  0.453600  0.114640  1.0  0.7057
  C  C437  1  0.913000  0.503700  0.054190  1.0  0.6829
  C  C438  1  0.684100  0.431000  0.056700  1.0  -0.1328
  C  C439  1  0.737800  0.432800  0.045700  1.0  0.1187
  C  C440  1  0.656600  0.490500  0.979200  1.0  0.119
  C  C441  1  0.513800  0.500800  0.956840  1.0  -0.1409
  C  C442  1  0.564700  0.483400  0.006590  1.0  0.1217
  C  C443  1  0.551500  0.482500  0.050360  1.0  -0.1514
  C  C444  1  0.954400  0.676100  0.352730  1.0  -0.1525
  C  C445  1  0.902600  0.658600  0.305220  1.0  0.0403
  C  C446  1  0.859700  0.694800  0.357390  1.0  0.1572
  C  C447  1  0.963300  0.724400  0.441030  1.0  0.1522
  C  C448  1  0.934700  0.707100  0.474930  1.0  -0.1369
  C  C449  1  0.033000  0.773600  0.546180  1.0  0.1864
  C  C450  1  0.061300  0.787900  0.512080  1.0  -0.1455
  C  C451  1  0.026200  0.763700  0.459250  1.0  -0.1561
  C  C452  1  0.039300  0.826000  0.633350  1.0  -0.1415
  C  C453  1  0.090900  0.841700  0.681400  1.0  0.02
  C  C454  1  0.134800  0.799800  0.631000  1.0  0.1407
  C  C455  1  0.970100  0.732300  0.528360  1.0  -0.1004
  C  C456  1  0.894900  0.501600  0.158210  1.0  -0.0538
  N  N457  1  0.720330  0.530900  0.497170  1.0  -0.3329
  N  N458  1  0.631790  0.531900  0.513530  1.0  0.0447
  N  N459  1  0.842410  0.329400  0.807900  1.0  -0.3726
  N  N460  1  0.927200  0.300700  0.886160  1.0  0.0472
  N  N461  1  0.067750  0.201000  0.101080  1.0  0.0457
  N  N462  1  0.151090  0.175500  0.180560  1.0  -0.3716
  N  N463  1  0.779670  0.030900  0.002830  1.0  -0.3357
  N  N464  1  0.868210  0.031900  0.986470  1.0  0.0436
  N  N465  1  0.657590  0.829400  0.692100  1.0  -0.3757
  N  N466  1  0.572800  0.800700  0.613840  1.0  0.0473
  N  N467  1  0.432250  0.701000  0.398920  1.0  0.0461
  N  N468  1  0.348910  0.675500  0.319440  1.0  -0.3746
  N  N469  1  0.279670  0.469100  0.502830  1.0  -0.3363
  N  N470  1  0.368210  0.468100  0.486470  1.0  0.0434
  N  N471  1  0.157590  0.670600  0.192100  1.0  -0.3764
  N  N472  1  0.072800  0.699300  0.113840  1.0  0.0481
  N  N473  1  0.932250  0.799000  0.898920  1.0  0.0455
  N  N474  1  0.848910  0.824500  0.819440  1.0  -0.3739
  N  N475  1  0.220330  0.969100  0.997170  1.0  -0.332
  N  N476  1  0.131790  0.968100  0.013530  1.0  0.0446
  N  N477  1  0.342410  0.170600  0.307900  1.0  -0.3732
  N  N478  1  0.427200  0.199300  0.386160  1.0  0.048
  N  N479  1  0.567750  0.299000  0.601080  1.0  0.0454
  N  N480  1  0.651090  0.324500  0.680560  1.0  -0.3739
  N  N481  1  0.220330  0.030900  0.497170  1.0  -0.3329
  N  N482  1  0.131790  0.031900  0.513530  1.0  0.0447
  N  N483  1  0.342410  0.829400  0.807900  1.0  -0.3726
  N  N484  1  0.427200  0.800700  0.886160  1.0  0.0472
  N  N485  1  0.567750  0.701000  0.101080  1.0  0.0457
  N  N486  1  0.651090  0.675500  0.180560  1.0  -0.3716
  N  N487  1  0.279670  0.530900  0.002830  1.0  -0.3357
  N  N488  1  0.368210  0.531900  0.986470  1.0  0.0436
  N  N489  1  0.157590  0.329400  0.692100  1.0  -0.3757
  N  N490  1  0.072800  0.300700  0.613840  1.0  0.0473
  N  N491  1  0.932250  0.201000  0.398920  1.0  0.0461
  N  N492  1  0.848910  0.175500  0.319440  1.0  -0.3746
  N  N493  1  0.779670  0.969100  0.502830  1.0  -0.3363
  N  N494  1  0.868210  0.968100  0.486470  1.0  0.0434
  N  N495  1  0.657590  0.170600  0.192100  1.0  -0.3764
  N  N496  1  0.572800  0.199300  0.113840  1.0  0.0481
  N  N497  1  0.432250  0.299000  0.898920  1.0  0.0455
  N  N498  1  0.348910  0.324500  0.819440  1.0  -0.3739
  N  N499  1  0.720330  0.469100  0.997170  1.0  -0.332
  N  N500  1  0.631790  0.468100  0.013530  1.0  0.0446
  N  N501  1  0.842410  0.670600  0.307900  1.0  -0.3732
  N  N502  1  0.927200  0.699300  0.386160  1.0  0.048
  N  N503  1  0.067750  0.799000  0.601080  1.0  0.0454
  N  N504  1  0.151090  0.824500  0.680560  1.0  -0.3739
  O  O505  1  0.826880  0.335010  0.665390  1.0  -0.5451
  O  O506  1  0.776920  0.417070  0.704390  1.0  -0.5934
  O  O507  1  0.786980  0.739620  0.715970  1.0  -0.5948
  O  O508  1  0.835710  0.824980  0.677180  1.0  -0.5349
  O  O509  1  0.216090  0.572180  0.651460  1.0  -0.5897
  O  O510  1  0.152780  0.511300  0.572110  1.0  -0.5925
  O  O511  1  0.864780  0.550380  0.527550  1.0  -0.5753
  O  O512  1  0.911880  0.411900  0.549900  1.0  -0.5268
  O  O513  1  0.673120  0.835010  0.834610  1.0  -0.5446
  O  O514  1  0.723080  0.917070  0.795610  1.0  -0.5933
  O  O515  1  0.713020  0.239620  0.784030  1.0  -0.5949
  O  O516  1  0.664290  0.324980  0.822820  1.0  -0.5324
  O  O517  1  0.283910  0.072180  0.848540  1.0  -0.5864
  O  O518  1  0.347220  0.011300  0.927890  1.0  -0.5927
  O  O519  1  0.635220  0.050380  0.972450  1.0  -0.5769
  O  O520  1  0.588120  0.911900  0.950100  1.0  -0.5277
  O  O521  1  0.173120  0.664990  0.334610  1.0  -0.5413
  O  O522  1  0.223080  0.582930  0.295610  1.0  -0.5935
  O  O523  1  0.213020  0.260380  0.284030  1.0  -0.5948
  O  O524  1  0.164290  0.175020  0.322820  1.0  -0.534
  O  O525  1  0.783910  0.427820  0.348540  1.0  -0.5868
  O  O526  1  0.847220  0.488700  0.427890  1.0  -0.592
  O  O527  1  0.135220  0.449620  0.472450  1.0  -0.5769
  O  O528  1  0.088120  0.588100  0.450100  1.0  -0.5251
  O  O529  1  0.326880  0.164990  0.165390  1.0  -0.5415
  O  O530  1  0.276920  0.082930  0.204390  1.0  -0.5932
  O  O531  1  0.286980  0.760380  0.215970  1.0  -0.5942
  O  O532  1  0.335710  0.675020  0.177180  1.0  -0.5332
  O  O533  1  0.716090  0.927820  0.151460  1.0  -0.5908
  O  O534  1  0.652780  0.988700  0.072110  1.0  -0.5926
  O  O535  1  0.364780  0.949620  0.027550  1.0  -0.5771
  O  O536  1  0.411880  0.088100  0.049900  1.0  -0.5268
  O  O537  1  0.326880  0.835010  0.665390  1.0  -0.5451
  O  O538  1  0.276920  0.917070  0.704390  1.0  -0.5934
  O  O539  1  0.286980  0.239620  0.715970  1.0  -0.5948
  O  O540  1  0.335710  0.324980  0.677180  1.0  -0.5349
  O  O541  1  0.716090  0.072180  0.651460  1.0  -0.5897
  O  O542  1  0.652780  0.011300  0.572110  1.0  -0.5927
  O  O543  1  0.364780  0.050380  0.527550  1.0  -0.5753
  O  O544  1  0.411880  0.911900  0.549900  1.0  -0.5268
  O  O545  1  0.173120  0.335010  0.834610  1.0  -0.5446
  O  O546  1  0.223080  0.417070  0.795610  1.0  -0.5933
  O  O547  1  0.213020  0.739620  0.784030  1.0  -0.5949
  O  O548  1  0.164290  0.824980  0.822820  1.0  -0.5324
  O  O549  1  0.783910  0.572180  0.848540  1.0  -0.5864
  O  O550  1  0.847220  0.511300  0.927890  1.0  -0.5929
  O  O551  1  0.135220  0.550380  0.972450  1.0  -0.5769
  O  O552  1  0.088120  0.411900  0.950100  1.0  -0.5277
  O  O553  1  0.673120  0.164990  0.334610  1.0  -0.5413
  O  O554  1  0.723080  0.082930  0.295610  1.0  -0.5935
  O  O555  1  0.713020  0.760380  0.284030  1.0  -0.5948
  O  O556  1  0.664290  0.675020  0.322820  1.0  -0.534
  O  O557  1  0.283910  0.927820  0.348540  1.0  -0.5868
  O  O558  1  0.347220  0.988700  0.427890  1.0  -0.5923
  O  O559  1  0.635220  0.949620  0.472450  1.0  -0.5769
  O  O560  1  0.588120  0.088100  0.450100  1.0  -0.5251
  O  O561  1  0.826880  0.664990  0.165390  1.0  -0.5415
  O  O562  1  0.776920  0.582930  0.204390  1.0  -0.5932
  O  O563  1  0.786980  0.260380  0.215970  1.0  -0.5942
  O  O564  1  0.835710  0.175020  0.177180  1.0  -0.5332
  O  O565  1  0.216090  0.427820  0.151460  1.0  -0.5908
  O  O566  1  0.152780  0.488700  0.072110  1.0  -0.5928
  O  O567  1  0.864780  0.449620  0.027550  1.0  -0.5771
  O  O568  1  0.911880  0.588100  0.049900  1.0  -0.5268
