# generated using pymatgen
data_CdH2C6SO5
_symmetry_space_group_name_H-M   'P 1'
_cell_length_a   6.94370000
_cell_length_b   13.32260000
_cell_length_c   16.38480000
_cell_angle_alpha   90.00000000
_cell_angle_beta   90.00000000
_cell_angle_gamma   90.00000000
_symmetry_Int_Tables_number   1
_chemical_formula_structural   CdH2C6SO5
_chemical_formula_sum   'Cd4 H8 C24 S4 O20'
_cell_volume   1515.72733328
_cell_formula_units_Z   4
loop_
 _symmetry_equiv_pos_site_id
 _symmetry_equiv_pos_as_xyz
  1  'x, y, z'
loop_
 _atom_site_type_symbol
 _atom_site_label
 _atom_site_symmetry_multiplicity
 _atom_site_fract_x
 _atom_site_fract_y
 _atom_site_fract_z
 _atom_site_occupancy
 _atom_site_charge
  Cd  Cd1  1  0.500000  0.223640  0.340590  1.0  0.9133
  Cd  Cd2  1  0.000000  0.276360  0.840590  1.0  0.9134
  Cd  Cd3  1  0.000000  0.723640  0.159410  1.0  0.9145
  Cd  Cd4  1  0.500000  0.776360  0.659410  1.0  0.9148
  H  H5  1  0.000000  0.015200  0.338400  1.0  0.1306
  H  H6  1  0.000000  0.984800  0.661600  1.0  0.1312
  H  H7  1  0.000000  0.748400  0.452300  1.0  0.1406
  H  H8  1  0.500000  0.751600  0.952300  1.0  0.1391
  H  H9  1  0.500000  0.515200  0.161600  1.0  0.1313
  H  H10  1  0.500000  0.484800  0.838400  1.0  0.1307
  H  H11  1  0.500000  0.248400  0.047700  1.0  0.1409
  H  H12  1  0.000000  0.251600  0.547700  1.0  0.1393
  C  C13  1  0.500000  0.318100  0.044500  1.0  0.0406
  C  C14  1  0.000000  0.123400  0.617200  1.0  -0.0935
  C  C15  1  0.000000  0.876600  0.382800  1.0  -0.0953
  C  C16  1  0.000000  0.818100  0.455500  1.0  0.0406
  C  C17  1  0.500000  0.478200  0.113500  1.0  -0.0176
  C  C18  1  0.500000  0.677100  0.801400  1.0  0.6719
  C  C19  1  0.500000  0.364000  0.970000  1.0  -0.2816
  C  C20  1  0.500000  0.322900  0.198600  1.0  0.6721
  C  C21  1  0.000000  0.864000  0.530000  1.0  -0.2825
  C  C22  1  0.500000  0.376600  0.117200  1.0  -0.0944
  C  C23  1  0.000000  0.021800  0.613500  1.0  -0.0174
  C  C24  1  0.000000  0.181900  0.544500  1.0  0.0378
  C  C25  1  0.000000  0.822900  0.301400  1.0  0.673
  C  C26  1  0.500000  0.636000  0.030000  1.0  -0.2818
  C  C27  1  0.000000  0.136000  0.470000  1.0  -0.2813
  C  C28  1  0.000000  0.978200  0.386500  1.0  -0.0175
  C  C29  1  0.500000  0.529600  0.036600  1.0  0.0772
  C  C30  1  0.500000  0.470400  0.963400  1.0  0.0796
  C  C31  1  0.000000  0.177100  0.698600  1.0  0.6732
  C  C32  1  0.500000  0.681900  0.955500  1.0  0.0377
  C  C33  1  0.000000  0.970400  0.536600  1.0  0.0798
  C  C34  1  0.500000  0.521800  0.886500  1.0  -0.017
  C  C35  1  0.000000  0.029600  0.463400  1.0  0.0796
  C  C36  1  0.500000  0.623400  0.882800  1.0  -0.0935
  S  S37  1  0.500000  0.715730  0.118200  1.0  1.3575
  S  S38  1  0.500000  0.284270  0.881800  1.0  1.3577
  S  S39  1  0.000000  0.215730  0.381800  1.0  1.3567
  S  S40  1  0.000000  0.784270  0.618200  1.0  1.3592
  O  O41  1  0.328700  0.690500  0.165500  1.0  -0.6644
  O  O42  1  0.328700  0.309500  0.834500  1.0  -0.6653
  O  O43  1  0.000000  0.872900  0.236700  1.0  -0.5558
  O  O44  1  0.000000  0.683300  0.587300  1.0  -0.5075
  O  O45  1  0.000000  0.316700  0.412700  1.0  -0.5078
  O  O46  1  0.828700  0.809500  0.665500  1.0  -0.664
  O  O47  1  0.828700  0.190500  0.334500  1.0  -0.6653
  O  O48  1  0.500000  0.372900  0.263300  1.0  -0.5612
  O  O49  1  0.171300  0.809500  0.665500  1.0  -0.6635
  O  O50  1  0.500000  0.816700  0.087300  1.0  -0.508
  O  O51  1  0.000000  0.271000  0.698700  1.0  -0.5453
  O  O52  1  0.500000  0.183300  0.912700  1.0  -0.5074
  O  O53  1  0.000000  0.729000  0.301300  1.0  -0.5449
  O  O54  1  0.500000  0.627100  0.736700  1.0  -0.5555
  O  O55  1  0.500000  0.229000  0.198700  1.0  -0.5449
  O  O56  1  0.000000  0.127100  0.763300  1.0  -0.5598
  O  O57  1  0.171300  0.190500  0.334500  1.0  -0.6646
  O  O58  1  0.671300  0.309500  0.834500  1.0  -0.6649
  O  O59  1  0.671300  0.690500  0.165500  1.0  -0.6639
  O  O60  1  0.500000  0.771000  0.801300  1.0  -0.546
