# generated using pymatgen
data_TbCoH7C12(NO2)4
_symmetry_space_group_name_H-M   'P 1'
_cell_length_a   9.14430000
_cell_length_b   13.00000000
_cell_length_c   18.40860000
_cell_angle_alpha   72.43510000
_cell_angle_beta   75.61900000
_cell_angle_gamma   69.40850000
_symmetry_Int_Tables_number   1
_chemical_formula_structural   TbCoH7C12(NO2)4
_chemical_formula_sum   'Tb4 Co4 H28 C48 N16 O32'
_cell_volume   1928.05771475
_cell_formula_units_Z   4
loop_
 _symmetry_equiv_pos_site_id
 _symmetry_equiv_pos_as_xyz
  1  'x, y, z'
loop_
 _atom_site_type_symbol
 _atom_site_label
 _atom_site_symmetry_multiplicity
 _atom_site_fract_x
 _atom_site_fract_y
 _atom_site_fract_z
 _atom_site_occupancy
 _atom_site_charge
  Tb  Tb1  1  0.152820  0.090470  0.994230  1.0  2.2517
  Tb  Tb2  1  0.762480  0.590470  0.494230  1.0  2.2474
  Tb  Tb3  1  0.847180  0.909530  0.005770  1.0  2.252
  Tb  Tb4  1  0.237520  0.409530  0.505770  1.0  2.25
  Co  Co5  1  0.223520  0.413990  0.163170  1.0  0.9569
  Co  Co6  1  0.199320  0.913990  0.663170  1.0  0.9584
  Co  Co7  1  0.776480  0.586010  0.836830  1.0  0.9579
  Co  Co8  1  0.800680  0.086010  0.336830  1.0  0.9585
  H  H9  1  0.723200  0.196500  0.539900  1.0  0.2706
  H  H10  1  0.131000  0.706600  0.622200  1.0  0.1366
  H  H11  1  0.869000  0.293400  0.377800  1.0  0.1361
  H  H12  1  0.245400  0.044900  0.348500  1.0  0.1327
  H  H13  1  0.638200  0.401100  0.086100  1.0  0.134
  H  H14  1  0.718500  0.997300  0.566700  1.0  0.1288
  H  H15  1  0.361200  0.544900  0.848500  1.0  0.133
  H  H16  1  0.459600  0.303500  0.960100  1.0  0.2716
  H  H17  1  0.874600  0.901100  0.586100  1.0  0.1338
  H  H18  1  0.439600  0.909700  0.817100  1.0  0.1435
  H  H19  1  0.717500  0.497300  0.066700  1.0  0.1316
  H  H20  1  0.998100  0.356500  0.345500  1.0  0.1361
  H  H21  1  0.166400  0.590300  0.682900  1.0  0.1431
  H  H22  1  0.276800  0.803500  0.460100  1.0  0.2696
  H  H23  1  0.560400  0.090300  0.182900  1.0  0.1428
  H  H24  1  0.282500  0.502700  0.933300  1.0  0.1306
  H  H25  1  0.299900  0.856500  0.845500  1.0  0.1379
  H  H26  1  0.638800  0.455100  0.151500  1.0  0.1335
  H  H27  1  0.833600  0.409700  0.317100  1.0  0.1438
  H  H28  1  0.700100  0.143500  0.154500  1.0  0.1378
  H  H29  1  0.125400  0.098900  0.413900  1.0  0.134
  H  H30  1  0.459800  0.793400  0.877800  1.0  0.1377
  H  H31  1  0.540400  0.696500  0.039900  1.0  0.2707
  H  H32  1  0.540200  0.206600  0.122200  1.0  0.1378
  H  H33  1  0.361800  0.598900  0.913900  1.0  0.1336
  H  H34  1  0.754600  0.955100  0.651500  1.0  0.1328
  H  H35  1  0.281500  0.002700  0.433300  1.0  0.1315
  H  H36  1  0.001900  0.643500  0.654500  1.0  0.1342
  C  C37  1  0.199500  0.030400  0.402000  1.0  -0.4155
  C  C38  1  0.883200  0.055400  0.581800  1.0  0.4125
  C  C39  1  0.800500  0.969600  0.598000  1.0  -0.4156
  C  C40  1  0.116800  0.944600  0.418200  1.0  0.4143
  C  C41  1  0.495000  0.733000  0.664200  1.0  -0.0102
  C  C42  1  0.619000  0.657800  0.703000  1.0  -0.0177
  C  C43  1  0.086200  0.659700  0.666900  1.0  -0.4268
  C  C44  1  0.979800  0.842200  0.797000  1.0  -0.0171
  C  C45  1  0.002000  0.938900  0.812100  1.0  0.7052
  C  C46  1  0.252900  0.846000  0.020400  1.0  0.6843
  C  C47  1  0.119300  0.654000  0.479600  1.0  0.6841
  C  C48  1  0.381000  0.342200  0.297000  1.0  -0.0166
  C  C49  1  0.020200  0.157800  0.203000  1.0  -0.0183
  C  C50  1  0.412800  0.840300  0.833100  1.0  -0.4284
  C  C51  1  0.107800  0.233000  0.164200  1.0  -0.0108
  C  C52  1  0.767500  0.359900  0.929100  1.0  -0.0135
  C  C53  1  0.943500  0.859900  0.429100  1.0  -0.0106
  C  C54  1  0.505000  0.267000  0.335800  1.0  -0.009
  C  C55  1  0.214700  0.139100  0.577700  1.0  0.7135
  C  C56  1  0.368100  0.530400  0.902000  1.0  -0.4159
  C  C57  1  0.747100  0.154000  0.979600  1.0  0.6834
  C  C58  1  0.520400  0.444600  0.918200  1.0  0.4145
  C  C59  1  0.473400  0.780400  0.769400  1.0  0.4517
  C  C60  1  0.558600  0.259900  0.407100  1.0  0.6818
  C  C61  1  0.913800  0.340300  0.333100  1.0  -0.4279
  C  C62  1  0.926700  0.222000  0.543000  1.0  -0.0315
  C  C63  1  0.526600  0.219600  0.230600  1.0  0.4521
  C  C64  1  0.931500  0.360900  0.922300  1.0  0.712
  C  C65  1  0.247000  0.438900  0.312100  1.0  0.7075
  C  C66  1  0.073300  0.778000  0.457000  1.0  -0.0285
  C  C67  1  0.308300  0.722000  0.043000  1.0  -0.034
  C  C68  1  0.976800  0.280400  0.269400  1.0  0.4509
  C  C69  1  0.785300  0.860900  0.422300  1.0  0.7144
  C  C70  1  0.753000  0.561100  0.687900  1.0  0.7087
  C  C71  1  0.631900  0.469600  0.098000  1.0  -0.4162
  C  C72  1  0.774400  0.759900  0.907100  1.0  0.6792
  C  C73  1  0.056500  0.140100  0.570900  1.0  -0.0106
  C  C74  1  0.998000  0.061100  0.187900  1.0  0.707
  C  C75  1  0.068500  0.639100  0.077700  1.0  0.7108
  C  C76  1  0.892200  0.767000  0.835800  1.0  -0.0089
  C  C77  1  0.441400  0.740100  0.592900  1.0  0.6824
  C  C78  1  0.479600  0.555400  0.081800  1.0  0.4135
  C  C79  1  0.225600  0.240100  0.092900  1.0  0.6816
  C  C80  1  0.023200  0.719600  0.730600  1.0  0.453
  C  C81  1  0.691700  0.278000  0.957000  1.0  -0.0294
  C  C82  1  0.880700  0.346000  0.520400  1.0  0.6845
  C  C83  1  0.232500  0.640100  0.070900  1.0  -0.0124
  C  C84  1  0.587200  0.159700  0.166900  1.0  -0.4269
  N  N85  1  0.340300  0.536600  0.096200  1.0  -0.4241
  N  N86  1  0.026900  0.036600  0.596200  1.0  -0.4243
  N  N87  1  0.601800  0.689600  0.770200  1.0  -0.5002
  N  N88  1  0.405000  0.809500  0.707100  1.0  -0.4583
  N  N89  1  0.180900  0.834700  0.448100  1.0  -0.2604
  N  N90  1  0.595000  0.190500  0.292900  1.0  -0.4573
  N  N91  1  0.819100  0.165300  0.551900  1.0  -0.2573
  N  N92  1  0.078400  0.309500  0.207100  1.0  -0.4591
  N  N93  1  0.659700  0.463400  0.903800  1.0  -0.4246
  N  N94  1  0.973100  0.963400  0.403800  1.0  -0.424
  N  N95  1  0.536300  0.334700  0.948100  1.0  -0.2559
  N  N96  1  0.921600  0.690500  0.792900  1.0  -0.458
  N  N97  1  0.061600  0.810400  0.729800  1.0  -0.4842
  N  N98  1  0.463700  0.665300  0.051900  1.0  -0.2564
  N  N99  1  0.938400  0.189600  0.270200  1.0  -0.4985
  N  N100  1  0.398200  0.310400  0.229800  1.0  -0.495
  O  O101  1  0.347100  0.899800  0.018000  1.0  -0.666
  O  O102  1  0.080440  0.994820  0.758700  1.0  -0.5815
  O  O103  1  0.266900  0.167100  0.053700  1.0  -0.708
  O  O104  1  0.702300  0.950800  0.384200  1.0  -0.5783
  O  O105  1  0.264900  0.600200  0.482000  1.0  -0.6681
  O  O106  1  0.735100  0.399800  0.518000  1.0  -0.6656
  O  O107  1  0.166040  0.494820  0.258700  1.0  -0.5813
  O  O108  1  0.321500  0.821400  0.574800  1.0  -0.578
  O  O109  1  0.733100  0.832900  0.946300  1.0  -0.7055
  O  O110  1  0.297700  0.049200  0.615800  1.0  -0.5803
  O  O111  1  0.969600  0.724400  0.045200  1.0  -0.7461
  O  O112  1  0.037300  0.549200  0.115800  1.0  -0.5794
  O  O113  1  0.979190  0.400120  0.504700  1.0  -0.8272
  O  O114  1  0.260800  0.224400  0.545200  1.0  -0.7434
  O  O115  1  0.739200  0.775600  0.454800  1.0  -0.7446
  O  O116  1  0.944800  0.965700  0.877500  1.0  -0.7149
  O  O117  1  0.212000  0.465700  0.377500  1.0  -0.7157
  O  O118  1  0.115990  0.900120  0.004700  1.0  -0.8276
  O  O119  1  0.020810  0.599880  0.495300  1.0  -0.8256
  O  O120  1  0.884010  0.099880  0.995300  1.0  -0.8262
  O  O121  1  0.512300  0.667100  0.553700  1.0  -0.7082
  O  O122  1  0.962700  0.450800  0.884200  1.0  -0.5774
  O  O123  1  0.788000  0.534300  0.622500  1.0  -0.716
  O  O124  1  0.652900  0.100200  0.982000  1.0  -0.6643
  O  O125  1  0.717700  0.678600  0.925200  1.0  -0.5777
  O  O126  1  0.919560  0.005180  0.241300  1.0  -0.58
  O  O127  1  0.055200  0.034300  0.122500  1.0  -0.7157
  O  O128  1  0.487700  0.332900  0.446300  1.0  -0.7062
  O  O129  1  0.282300  0.321400  0.074800  1.0  -0.5758
  O  O130  1  0.678500  0.178600  0.425200  1.0  -0.5759
  O  O131  1  0.030400  0.275600  0.954800  1.0  -0.7444
  O  O132  1  0.833960  0.505180  0.741300  1.0  -0.5809
