# generated using pymatgen
data_YbZnH7C12(NO2)4
_symmetry_space_group_name_H-M   'P 1'
_cell_length_a   9.17890000
_cell_length_b   12.92920000
_cell_length_c   18.44530000
_cell_angle_alpha   71.99830000
_cell_angle_beta   75.59270000
_cell_angle_gamma   69.20850000
_symmetry_Int_Tables_number   1
_chemical_formula_structural   YbZnH7C12(NO2)4
_chemical_formula_sum   'Yb4 Zn4 H28 C48 N16 O32'
_cell_volume   1922.30944022
_cell_formula_units_Z   4
loop_
 _symmetry_equiv_pos_site_id
 _symmetry_equiv_pos_as_xyz
  1  'x, y, z'
loop_
 _atom_site_type_symbol
 _atom_site_label
 _atom_site_symmetry_multiplicity
 _atom_site_fract_x
 _atom_site_fract_y
 _atom_site_fract_z
 _atom_site_occupancy
 _atom_site_charge
  Yb  Yb1  1  0.849030  0.911630  0.004130  1.0  1.5278
  Yb  Yb2  1  0.150970  0.088370  0.995870  1.0  1.5292
  Yb  Yb3  1  0.764790  0.588370  0.495870  1.0  1.527
  Yb  Yb4  1  0.235210  0.411630  0.504130  1.0  1.5272
  Zn  Zn5  1  0.778730  0.588430  0.836750  1.0  0.9443
  Zn  Zn6  1  0.796090  0.088430  0.336750  1.0  0.9455
  Zn  Zn7  1  0.203910  0.911570  0.663250  1.0  0.9446
  Zn  Zn8  1  0.221270  0.411570  0.163250  1.0  0.9438
  H  H9  1  0.262800  0.013800  0.435200  1.0  0.1567
  H  H10  1  0.501800  0.177800  0.139400  1.0  0.1539
  H  H11  1  0.889000  0.892300  0.593100  1.0  0.1481
  H  H12  1  0.403300  0.927600  0.803200  1.0  0.1654
  H  H13  1  0.269200  0.805500  0.462500  1.0  0.3074
  H  H14  1  0.675000  0.166100  0.144700  1.0  0.1548
  H  H15  1  0.730800  0.194500  0.537500  1.0  0.3071
  H  H16  1  0.242100  0.045800  0.348400  1.0  0.1584
  H  H17  1  0.865900  0.427600  0.303200  1.0  0.1662
  H  H18  1  0.737200  0.986200  0.564800  1.0  0.1556
  H  H19  1  0.537200  0.694500  0.037500  1.0  0.3081
  H  H20  1  0.363700  0.545800  0.848400  1.0  0.1588
  H  H21  1  0.014200  0.666100  0.644700  1.0  0.1539
  H  H22  1  0.498200  0.822200  0.860600  1.0  0.1553
  H  H23  1  0.462800  0.305500  0.962500  1.0  0.3088
  H  H24  1  0.819000  0.322200  0.360600  1.0  0.1565
  H  H25  1  0.596700  0.072400  0.196800  1.0  0.1669
  H  H26  1  0.757900  0.954200  0.651600  1.0  0.1583
  H  H27  1  0.636300  0.454200  0.151600  1.0  0.1578
  H  H28  1  0.288200  0.513800  0.935200  1.0  0.1571
  H  H29  1  0.111000  0.107700  0.406900  1.0  0.1485
  H  H30  1  0.325000  0.833900  0.855300  1.0  0.1574
  H  H31  1  0.711800  0.486200  0.064800  1.0  0.1582
  H  H32  1  0.181000  0.677800  0.639400  1.0  0.1578
  H  H33  1  0.985800  0.333900  0.355300  1.0  0.1545
  H  H34  1  0.625600  0.392300  0.093100  1.0  0.1473
  H  H35  1  0.134100  0.572400  0.696800  1.0  0.1678
  H  H36  1  0.374400  0.607700  0.906900  1.0  0.1479
  C  C37  1  0.624670  0.657760  0.700900  1.0  0.0164
  C  C38  1  0.811900  0.963200  0.599400  1.0  -0.3894
  C  C39  1  0.305030  0.721740  0.042200  1.0  -0.0258
  C  C40  1  0.228200  0.639600  0.069600  1.0  0.0058
  C  C41  1  0.446840  0.736220  0.591300  1.0  0.6945
  C  C42  1  0.780010  0.858580  0.424000  1.0  0.7284
  C  C43  1  0.749580  0.152540  0.979300  1.0  0.7265
  C  C44  1  0.625500  0.463200  0.099400  1.0  -0.3901
  C  C45  1  0.062600  0.139600  0.569600  1.0  0.0087
  C  C46  1  0.937400  0.860400  0.430400  1.0  0.0079
  C  C47  1  0.062590  0.641420  0.076000  1.0  0.7273
  C  C48  1  0.774360  0.763780  0.908700  1.0  0.6899
  C  C49  1  0.108100  0.947900  0.418300  1.0  0.4595
  C  C50  1  0.375330  0.342240  0.299100  1.0  0.0163
  C  C51  1  0.578100  0.152500  0.173500  1.0  -0.4356
  C  C52  1  0.996560  0.057480  0.186600  1.0  0.7121
  C  C53  1  0.118580  0.652540  0.479300  1.0  0.7249
  C  C54  1  0.250420  0.847460  0.020700  1.0  0.7261
  C  C55  1  0.891900  0.052100  0.581700  1.0  0.4586
  C  C56  1  0.240640  0.442520  0.313400  1.0  0.7112
  C  C57  1  0.881420  0.347460  0.520700  1.0  0.725
  C  C58  1  0.517370  0.216460  0.234600  1.0  0.4431
  C  C59  1  0.003440  0.942520  0.813400  1.0  0.7098
  C  C60  1  0.968430  0.283540  0.265400  1.0  0.4439
  C  C61  1  0.188100  0.036800  0.400600  1.0  -0.3894
  C  C62  1  0.904100  0.347500  0.326500  1.0  -0.4364
  C  C63  1  0.095900  0.652500  0.673500  1.0  -0.4355
  C  C64  1  0.482630  0.783540  0.765400  1.0  0.4437
  C  C65  1  0.759360  0.557480  0.686600  1.0  0.7126
  C  C66  1  0.225640  0.236220  0.091300  1.0  0.6925
  C  C67  1  0.895470  0.767960  0.838700  1.0  -0.0173
  C  C68  1  0.983330  0.842240  0.799100  1.0  0.0157
  C  C69  1  0.497870  0.267960  0.338700  1.0  -0.0174
  C  C70  1  0.031570  0.716460  0.734600  1.0  0.446
  C  C71  1  0.937410  0.358580  0.924000  1.0  0.7282
  C  C72  1  0.771800  0.360400  0.930400  1.0  0.0057
  C  C73  1  0.525700  0.447900  0.918300  1.0  0.4587
  C  C74  1  0.104530  0.232040  0.161300  1.0  -0.0171
  C  C75  1  0.502130  0.732040  0.661300  1.0  -0.0169
  C  C76  1  0.694970  0.278260  0.957800  1.0  -0.0211
  C  C77  1  0.553160  0.263780  0.408700  1.0  0.6925
  C  C78  1  0.374500  0.536800  0.900600  1.0  -0.3893
  C  C79  1  0.068970  0.778260  0.457800  1.0  -0.0221
  C  C80  1  0.421900  0.847500  0.826500  1.0  -0.4366
  C  C81  1  0.016670  0.157760  0.200900  1.0  0.0156
  C  C82  1  0.931030  0.221740  0.542200  1.0  -0.0239
  C  C83  1  0.474300  0.552100  0.081700  1.0  0.4593
  C  C84  1  0.219990  0.141420  0.576000  1.0  0.7291
  N  N85  1  0.926960  0.689230  0.796650  1.0  -0.4167
  N  N86  1  0.073040  0.310770  0.203350  1.0  -0.4179
  N  N87  1  0.174140  0.836220  0.449500  1.0  -0.2401
  N  N88  1  0.825860  0.163780  0.550500  1.0  -0.2392
  N  N89  1  0.334770  0.534900  0.094760  1.0  -0.4151
  N  N90  1  0.665230  0.465100  0.905240  1.0  -0.4154
  N  N91  1  0.066840  0.809260  0.733460  1.0  -0.4227
  N  N92  1  0.459860  0.663780  0.050500  1.0  -0.2352
  N  N93  1  0.933160  0.190740  0.266540  1.0  -0.4264
  N  N94  1  0.609560  0.690740  0.766540  1.0  -0.4251
  N  N95  1  0.390440  0.309260  0.233460  1.0  -0.4216
  N  N96  1  0.540140  0.336220  0.949500  1.0  -0.2351
  N  N97  1  0.964430  0.965100  0.405240  1.0  -0.4153
  N  N98  1  0.412840  0.810770  0.703350  1.0  -0.4168
  N  N99  1  0.587160  0.189230  0.296650  1.0  -0.4156
  N  N100  1  0.035570  0.034900  0.594760  1.0  -0.4162
  O  O101  1  0.052600  0.032010  0.121390  1.0  -0.6792
  O  O102  1  0.947400  0.967990  0.878610  1.0  -0.6785
  O  O103  1  0.020250  0.597350  0.496150  1.0  -0.8062
  O  O104  1  0.736570  0.401060  0.519400  1.0  -0.6259
  O  O105  1  0.970670  0.446400  0.884260  1.0  -0.5447
  O  O106  1  0.713840  0.684400  0.927120  1.0  -0.5613
  O  O107  1  0.268540  0.158860  0.055260  1.0  -0.6772
  O  O108  1  0.698670  0.946400  0.384260  1.0  -0.5455
  O  O109  1  0.838210  0.501630  0.739750  1.0  -0.5499
  O  O110  1  0.113750  0.902650  0.003850  1.0  -0.8083
  O  O111  1  0.029330  0.553600  0.115740  1.0  -0.5457
  O  O112  1  0.886250  0.097350  0.996150  1.0  -0.8074
  O  O113  1  0.325360  0.815600  0.572880  1.0  -0.5626
  O  O114  1  0.265390  0.228020  0.540400  1.0  -0.7004
  O  O115  1  0.966190  0.728020  0.040400  1.0  -0.7033
  O  O116  1  0.342970  0.901060  0.019400  1.0  -0.6245
  O  O117  1  0.301330  0.053600  0.615740  1.0  -0.5454
  O  O118  1  0.033810  0.271980  0.959600  1.0  -0.7006
  O  O119  1  0.482660  0.341140  0.444740  1.0  -0.6775
  O  O120  1  0.657030  0.098940  0.980600  1.0  -0.6226
  O  O121  1  0.731460  0.841140  0.944740  1.0  -0.6755
  O  O122  1  0.286160  0.315600  0.072880  1.0  -0.5623
  O  O123  1  0.206000  0.467990  0.378610  1.0  -0.6786
  O  O124  1  0.979750  0.402650  0.503850  1.0  -0.807
  O  O125  1  0.794000  0.532010  0.621390  1.0  -0.6798
  O  O126  1  0.263430  0.598940  0.480600  1.0  -0.6266
  O  O127  1  0.920410  0.001630  0.239750  1.0  -0.5475
  O  O128  1  0.734610  0.771980  0.459600  1.0  -0.6997
  O  O129  1  0.079590  0.998370  0.760250  1.0  -0.5478
  O  O130  1  0.161790  0.498370  0.260250  1.0  -0.5512
  O  O131  1  0.674640  0.184400  0.427120  1.0  -0.5609
  O  O132  1  0.517340  0.658860  0.555260  1.0  -0.6772
