# generated using pymatgen
data_ErZnH7C12(NO2)4
_symmetry_space_group_name_H-M   'P 1'
_cell_length_a   9.17350000
_cell_length_b   12.95640000
_cell_length_c   18.50790000
_cell_angle_alpha   72.20160000
_cell_angle_beta   75.65100000
_cell_angle_gamma   69.26690000
_symmetry_Int_Tables_number   1
_chemical_formula_structural   ErZnH7C12(NO2)4
_chemical_formula_sum   'Er4 Zn4 H28 C48 N16 O32'
_cell_volume   1934.61526223
_cell_formula_units_Z   4
loop_
 _symmetry_equiv_pos_site_id
 _symmetry_equiv_pos_as_xyz
  1  'x, y, z'
loop_
 _atom_site_type_symbol
 _atom_site_label
 _atom_site_symmetry_multiplicity
 _atom_site_fract_x
 _atom_site_fract_y
 _atom_site_fract_z
 _atom_site_occupancy
 _atom_site_charge
  Er  Er1  1  0.236090  0.411220  0.505080  1.0  1.5287
  Er  Er2  1  0.152390  0.088790  0.994910  1.0  1.5284
  Er  Er3  1  0.763910  0.588790  0.494910  1.0  1.5279
  Er  Er4  1  0.847610  0.911220  0.005080  1.0  1.5287
  Zn  Zn5  1  0.201400  0.911560  0.664040  1.0  0.9418
  Zn  Zn6  1  0.798600  0.088440  0.335960  1.0  0.944
  Zn  Zn7  1  0.777000  0.588440  0.835960  1.0  0.9413
  Zn  Zn8  1  0.223000  0.411560  0.164040  1.0  0.9425
  H  H9  1  0.268300  0.805500  0.463900  1.0  0.3115
  H  H10  1  0.371300  0.606500  0.908300  1.0  0.1499
  H  H11  1  0.886100  0.893500  0.591700  1.0  0.1505
  H  H12  1  0.511900  0.187000  0.134800  1.0  0.1571
  H  H13  1  0.414700  0.923700  0.805300  1.0  0.1631
  H  H14  1  0.286500  0.512000  0.936600  1.0  0.1571
  H  H15  1  0.731700  0.194500  0.536100  1.0  0.3113
  H  H16  1  0.245200  0.044600  0.350000  1.0  0.1571
  H  H17  1  0.113900  0.106500  0.408300  1.0  0.1506
  H  H18  1  0.856300  0.423700  0.305300  1.0  0.164
  H  H19  1  0.684900  0.158900  0.148900  1.0  0.1596
  H  H20  1  0.639800  0.455400  0.150000  1.0  0.1559
  H  H21  1  0.585300  0.076300  0.194700  1.0  0.1643
  H  H22  1  0.713500  0.488000  0.063400  1.0  0.1586
  H  H23  1  0.143700  0.576300  0.694700  1.0  0.1654
  H  H24  1  0.537700  0.694500  0.036100  1.0  0.313
  H  H25  1  0.462300  0.305500  0.963900  1.0  0.3134
  H  H26  1  0.315100  0.841100  0.851100  1.0  0.1612
  H  H27  1  0.360200  0.544600  0.850000  1.0  0.1575
  H  H28  1  0.754800  0.955400  0.650000  1.0  0.1574
  H  H29  1  0.166300  0.687000  0.634800  1.0  0.1599
  H  H30  1  0.992700  0.341100  0.351100  1.0  0.1597
  H  H31  1  0.488100  0.813000  0.865200  1.0  0.1563
  H  H32  1  0.833700  0.313000  0.365200  1.0  0.1564
  H  H33  1  0.735100  0.988000  0.563400  1.0  0.156
  H  H34  1  0.628700  0.393500  0.091700  1.0  0.1499
  H  H35  1  0.007300  0.658900  0.648900  1.0  0.1575
  H  H36  1  0.264900  0.012000  0.436600  1.0  0.1573
  C  C37  1  0.980200  0.842500  0.799300  1.0  -0.003
  C  C38  1  0.226900  0.237600  0.091400  1.0  0.694
  C  C39  1  0.809500  0.964500  0.598100  1.0  -0.3898
  C  C40  1  0.931300  0.221200  0.542400  1.0  -0.0405
  C  C41  1  0.372100  0.535500  0.901900  1.0  -0.389
  C  C42  1  0.908000  0.345700  0.327300  1.0  -0.433
  C  C43  1  0.500700  0.267800  0.338400  1.0  0.0003
  C  C44  1  0.756860  0.557980  0.686300  1.0  0.7032
  C  C45  1  0.937000  0.359500  0.921700  1.0  0.7254
  C  C46  1  0.063000  0.640500  0.078300  1.0  0.7248
  C  C47  1  0.475800  0.552200  0.081600  1.0  0.4516
  C  C48  1  0.972250  0.282000  0.266100  1.0  0.4557
  C  C49  1  0.499300  0.732200  0.661600  1.0  -0.0005
  C  C50  1  0.581000  0.154300  0.172700  1.0  -0.4315
  C  C51  1  0.190500  0.035500  0.401900  1.0  -0.389
  C  C52  1  0.419000  0.845700  0.827300  1.0  -0.433
  C  C53  1  0.771710  0.360780  0.929400  1.0  0.0055
  C  C54  1  0.555900  0.262400  0.408600  1.0  0.6947
  C  C55  1  0.243140  0.442020  0.313700  1.0  0.7029
  C  C56  1  0.881500  0.347100  0.520500  1.0  0.724
  C  C57  1  0.773100  0.762400  0.908600  1.0  0.6921
  C  C58  1  0.998860  0.057980  0.186300  1.0  0.7033
  C  C59  1  0.061890  0.139220  0.570600  1.0  0.008
  C  C60  1  0.444100  0.737600  0.591400  1.0  0.695
  C  C61  1  0.106900  0.232200  0.161600  1.0  1e-04
  C  C62  1  0.218200  0.140500  0.578300  1.0  0.7268
  C  C63  1  0.109600  0.947800  0.418400  1.0  0.4519
  C  C64  1  0.627900  0.464500  0.098100  1.0  -0.3898
  C  C65  1  0.228290  0.639220  0.070600  1.0  0.0057
  C  C66  1  0.479650  0.782000  0.766100  1.0  0.4544
  C  C67  1  0.250900  0.847100  0.020500  1.0  0.7218
  C  C68  1  0.068700  0.778800  0.457600  1.0  -0.0394
  C  C69  1  0.749100  0.152900  0.979500  1.0  0.7232
  C  C70  1  0.524200  0.447800  0.918400  1.0  0.4513
  C  C71  1  0.092000  0.654300  0.672700  1.0  -0.4316
  C  C72  1  0.890400  0.052200  0.581600  1.0  0.4515
  C  C73  1  0.378000  0.342500  0.299300  1.0  -0.0024
  C  C74  1  0.027750  0.718000  0.733900  1.0  0.4551
  C  C75  1  0.001140  0.942020  0.813700  1.0  0.7028
  C  C76  1  0.520350  0.218000  0.233900  1.0  0.4527
  C  C77  1  0.622000  0.657500  0.700700  1.0  -0.0024
  C  C78  1  0.019800  0.157500  0.200700  1.0  -0.003
  C  C79  1  0.893100  0.767800  0.838400  1.0  0.0006
  C  C80  1  0.781800  0.859500  0.421700  1.0  0.7268
  C  C81  1  0.118500  0.652900  0.479500  1.0  0.7235
  C  C82  1  0.305100  0.721200  0.042400  1.0  -0.0425
  C  C83  1  0.694900  0.278800  0.957600  1.0  -0.0387
  C  C84  1  0.938110  0.860780  0.429400  1.0  0.0078
  N  N85  1  0.589720  0.190060  0.296100  1.0  -0.3989
  N  N86  1  0.664060  0.464880  0.904600  1.0  -0.4126
  N  N87  1  0.335940  0.535120  0.095400  1.0  -0.4125
  N  N88  1  0.539500  0.336200  0.950200  1.0  -0.2248
  N  N89  1  0.393260  0.310180  0.233100  1.0  -0.4428
  N  N90  1  0.936540  0.189820  0.266900  1.0  -0.4362
  N  N91  1  0.033540  0.035120  0.595400  1.0  -0.4129
  N  N92  1  0.825900  0.163800  0.549800  1.0  -0.2307
  N  N93  1  0.174100  0.836200  0.450200  1.0  -0.2307
  N  N94  1  0.410280  0.809940  0.703900  1.0  -0.3995
  N  N95  1  0.063460  0.810180  0.733100  1.0  -0.432
  N  N96  1  0.966460  0.964880  0.404600  1.0  -0.4126
  N  N97  1  0.075880  0.309940  0.203900  1.0  -0.4003
  N  N98  1  0.924120  0.690060  0.796100  1.0  -0.3993
  N  N99  1  0.460500  0.663800  0.049800  1.0  -0.225
  N  N100  1  0.606740  0.689820  0.766900  1.0  -0.4406
  O  O101  1  0.163920  0.497940  0.260820  1.0  -0.5536
  O  O102  1  0.484340  0.338410  0.445910  1.0  -0.6877
  O  O103  1  0.965820  0.727060  0.042900  1.0  -0.7076
  O  O104  1  0.700770  0.946760  0.381900  1.0  -0.5511
  O  O105  1  0.322680  0.817300  0.573540  1.0  -0.5626
  O  O106  1  0.113920  0.901570  0.004190  1.0  -0.7849
  O  O107  1  0.677320  0.182700  0.426460  1.0  -0.5613
  O  O108  1  0.731340  0.838410  0.945910  1.0  -0.6862
  O  O109  1  0.922680  0.002060  0.239180  1.0  -0.5496
  O  O110  1  0.077320  0.997940  0.760820  1.0  -0.5513
  O  O111  1  0.034180  0.272940  0.957100  1.0  -0.7083
  O  O112  1  0.515660  0.661590  0.554090  1.0  -0.6896
  O  O113  1  0.791060  0.532160  0.621120  1.0  -0.6793
  O  O114  1  0.264220  0.227060  0.542900  1.0  -0.7064
  O  O115  1  0.286480  0.317300  0.073540  1.0  -0.5616
  O  O116  1  0.713520  0.682700  0.926460  1.0  -0.5629
  O  O117  1  0.208940  0.467840  0.378880  1.0  -0.6783
  O  O118  1  0.735780  0.772940  0.457100  1.0  -0.7083
  O  O119  1  0.836080  0.502060  0.739180  1.0  -0.5526
  O  O120  1  0.019680  0.598430  0.495810  1.0  -0.7833
  O  O121  1  0.344650  0.900000  0.017900  1.0  -0.6227
  O  O122  1  0.980320  0.401570  0.504190  1.0  -0.782
  O  O123  1  0.970570  0.446760  0.881900  1.0  -0.5503
  O  O124  1  0.886080  0.098430  0.995810  1.0  -0.7836
  O  O125  1  0.944340  0.967840  0.878880  1.0  -0.678
  O  O126  1  0.268660  0.161590  0.054090  1.0  -0.689
  O  O127  1  0.029430  0.553240  0.118100  1.0  -0.5506
  O  O128  1  0.655350  0.100000  0.982100  1.0  -0.621
  O  O129  1  0.299230  0.053240  0.618100  1.0  -0.5507
  O  O130  1  0.262550  0.600000  0.482100  1.0  -0.625
  O  O131  1  0.055660  0.032160  0.121120  1.0  -0.6782
  O  O132  1  0.737450  0.400000  0.517900  1.0  -0.6232
