# generated using pymatgen
data_HoZnH7C12(NO2)4
_symmetry_space_group_name_H-M   'P 1'
_cell_length_a   9.17740000
_cell_length_b   12.93680000
_cell_length_c   18.50230000
_cell_angle_alpha   71.95000000
_cell_angle_beta   75.64030000
_cell_angle_gamma   69.22480000
_symmetry_Int_Tables_number   1
_chemical_formula_structural   HoZnH7C12(NO2)4
_chemical_formula_sum   'Ho4 Zn4 H28 C48 N16 O32'
_cell_volume   1929.08816070
_cell_formula_units_Z   4
loop_
 _symmetry_equiv_pos_site_id
 _symmetry_equiv_pos_as_xyz
  1  'x, y, z'
loop_
 _atom_site_type_symbol
 _atom_site_label
 _atom_site_symmetry_multiplicity
 _atom_site_fract_x
 _atom_site_fract_y
 _atom_site_fract_z
 _atom_site_occupancy
 _atom_site_charge
  Ho  Ho1  1  0.236060  0.411660  0.505140  1.0  2.1801
  Ho  Ho2  1  0.763940  0.588340  0.494860  1.0  2.1789
  Ho  Ho3  1  0.847140  0.911660  0.005140  1.0  2.1803
  Ho  Ho4  1  0.152860  0.088340  0.994860  1.0  2.1813
  Zn  Zn5  1  0.799480  0.089020  0.335320  1.0  0.9302
  Zn  Zn6  1  0.776180  0.589020  0.835320  1.0  0.9286
  Zn  Zn7  1  0.200520  0.910980  0.664680  1.0  0.9296
  Zn  Zn8  1  0.223820  0.410980  0.164680  1.0  0.9283
  H  H9  1  0.757500  0.954200  0.648400  1.0  0.1319
  H  H10  1  0.733600  0.193000  0.535400  1.0  0.2791
  H  H11  1  0.109900  0.107400  0.409400  1.0  0.1179
  H  H12  1  0.364700  0.802900  0.871100  1.0  0.1226
  H  H13  1  0.496300  0.143400  0.159000  1.0  0.1428
  H  H14  1  0.639900  0.454200  0.148400  1.0  0.1311
  H  H15  1  0.961300  0.302900  0.371100  1.0  0.1233
  H  H16  1  0.373300  0.607400  0.909400  1.0  0.1171
  H  H17  1  0.503700  0.856600  0.841000  1.0  0.1429
  H  H18  1  0.344300  0.918600  0.808200  1.0  0.1415
  H  H19  1  0.462000  0.307000  0.964600  1.0  0.2807
  H  H20  1  0.242500  0.045800  0.351600  1.0  0.1319
  H  H21  1  0.635300  0.197100  0.128900  1.0  0.1228
  H  H22  1  0.071100  0.581400  0.691800  1.0  0.1413
  H  H23  1  0.360100  0.545800  0.851600  1.0  0.1313
  H  H24  1  0.711400  0.487400  0.061400  1.0  0.1315
  H  H25  1  0.266400  0.807000  0.464600  1.0  0.2795
  H  H26  1  0.201300  0.643400  0.659000  1.0  0.1416
  H  H27  1  0.928900  0.418600  0.308200  1.0  0.1418
  H  H28  1  0.288600  0.512600  0.938600  1.0  0.1302
  H  H29  1  0.626700  0.392600  0.090600  1.0  0.1171
  H  H30  1  0.890100  0.892600  0.590600  1.0  0.1171
  H  H31  1  0.260200  0.012600  0.438600  1.0  0.131
  H  H32  1  0.739800  0.987400  0.561400  1.0  0.13
  H  H33  1  0.655700  0.081400  0.191800  1.0  0.1415
  H  H34  1  0.538000  0.693000  0.035400  1.0  0.2814
  H  H35  1  0.798700  0.356600  0.341000  1.0  0.1427
  H  H36  1  0.038700  0.697100  0.628900  1.0  0.1228
  C  C37  1  0.755700  0.559000  0.685800  1.0  0.7079
  C  C38  1  0.974400  0.282200  0.265400  1.0  0.444
  C  C39  1  0.303700  0.721000  0.042800  1.0  -0.0222
  C  C40  1  0.021500  0.158000  0.200200  1.0  -0.012
  C  C41  1  0.781500  0.859300  0.420700  1.0  0.7212
  C  C42  1  0.244300  0.441000  0.314200  1.0  0.7067
  C  C43  1  0.474300  0.551400  0.080800  1.0  0.429
  C  C44  1  0.218500  0.140700  0.579300  1.0  0.7212
  C  C45  1  0.443400  0.738400  0.592000  1.0  0.6675
  C  C46  1  0.620300  0.658000  0.700200  1.0  -0.011
  C  C47  1  0.000500  0.941000  0.814200  1.0  0.7073
  C  C48  1  0.626400  0.463700  0.096700  1.0  -0.409
  C  C49  1  0.892200  0.767900  0.838500  1.0  0.0244
  C  C50  1  0.582700  0.154300  0.173100  1.0  -0.4413
  C  C51  1  0.910100  0.345700  0.326900  1.0  -0.4422
  C  C52  1  0.696300  0.279000  0.957200  1.0  -0.0202
  C  C53  1  0.883700  0.346300  0.519900  1.0  0.6762
  C  C54  1  0.772400  0.360400  0.929000  1.0  -0.0099
  C  C55  1  0.061500  0.640700  0.079300  1.0  0.719
  C  C56  1  0.893500  0.051400  0.580800  1.0  0.4283
  C  C57  1  0.061800  0.139600  0.571000  1.0  -0.0066
  C  C58  1  0.999500  0.059000  0.185800  1.0  0.7074
  C  C59  1  0.813200  0.963700  0.596700  1.0  -0.4078
  C  C60  1  0.226200  0.238400  0.092000  1.0  0.6693
  C  C61  1  0.373600  0.536300  0.903300  1.0  -0.4079
  C  C62  1  0.186800  0.036300  0.403300  1.0  -0.4082
  C  C63  1  0.106500  0.948600  0.419200  1.0  0.4274
  C  C64  1  0.773800  0.761600  0.908000  1.0  0.669
  C  C65  1  0.089900  0.654300  0.673100  1.0  -0.4411
  C  C66  1  0.749900  0.153700  0.980100  1.0  0.677
  C  C67  1  0.498600  0.732100  0.661500  1.0  0.0246
  C  C68  1  0.556600  0.261600  0.408000  1.0  0.6683
  C  C69  1  0.501400  0.267900  0.338500  1.0  0.0248
  C  C70  1  0.107800  0.232100  0.161500  1.0  0.0246
  C  C71  1  0.478000  0.782200  0.765400  1.0  0.4445
  C  C72  1  0.938200  0.860400  0.429000  1.0  -0.0065
  C  C73  1  0.932500  0.221000  0.542800  1.0  -0.0213
  C  C74  1  0.379700  0.342000  0.299800  1.0  -0.011
  C  C75  1  0.250100  0.846300  0.019900  1.0  0.6808
  C  C76  1  0.417300  0.845700  0.826900  1.0  -0.4425
  C  C77  1  0.525700  0.448600  0.919200  1.0  0.4284
  C  C78  1  0.938500  0.359300  0.920700  1.0  0.7218
  C  C79  1  0.227600  0.639600  0.071000  1.0  -0.0095
  C  C80  1  0.116300  0.653700  0.480100  1.0  0.6752
  C  C81  1  0.025600  0.717800  0.734600  1.0  0.4445
  C  C82  1  0.522000  0.217800  0.234600  1.0  0.4448
  C  C83  1  0.978500  0.842000  0.799800  1.0  -0.0108
  C  C84  1  0.067500  0.779000  0.457200  1.0  -0.0204
  N  N85  1  0.827700  0.162600  0.549400  1.0  -0.2698
  N  N86  1  0.034900  0.034600  0.595800  1.0  -0.4376
  N  N87  1  0.172300  0.837400  0.450600  1.0  -0.2699
  N  N88  1  0.539700  0.337400  0.950600  1.0  -0.266
  N  N89  1  0.665300  0.465400  0.904200  1.0  -0.4389
  N  N90  1  0.334700  0.534600  0.095800  1.0  -0.4384
  N  N91  1  0.408450  0.809800  0.703900  1.0  -0.4577
  N  N92  1  0.062500  0.809900  0.733300  1.0  -0.474
  N  N93  1  0.591550  0.190200  0.296100  1.0  -0.4519
  N  N94  1  0.937500  0.190100  0.266700  1.0  -0.476
  N  N95  1  0.460300  0.662600  0.049400  1.0  -0.2661
  N  N96  1  0.965100  0.965400  0.404200  1.0  -0.4384
  N  N97  1  0.605700  0.690100  0.766700  1.0  -0.4733
  N  N98  1  0.077850  0.309800  0.203900  1.0  -0.4687
  N  N99  1  0.394300  0.309900  0.233300  1.0  -0.4754
  N  N100  1  0.922150  0.690200  0.796100  1.0  -0.4537
  O  O101  1  0.739640  0.399120  0.517400  1.0  -0.6419
  O  O102  1  0.077280  0.996540  0.761500  1.0  -0.5808
  O  O103  1  0.922720  0.003460  0.238500  1.0  -0.5813
  O  O104  1  0.835320  0.503460  0.738500  1.0  -0.5834
  O  O105  1  0.298300  0.052500  0.618900  1.0  -0.5729
  O  O106  1  0.484610  0.336680  0.446100  1.0  -0.7105
  O  O107  1  0.287210  0.317580  0.074000  1.0  -0.5821
  O  O108  1  0.019670  0.598760  0.495300  1.0  -0.7918
  O  O109  1  0.712790  0.682420  0.926000  1.0  -0.5814
  O  O110  1  0.945670  0.966560  0.878300  1.0  -0.7159
  O  O111  1  0.267390  0.163320  0.053900  1.0  -0.7107
  O  O112  1  0.113730  0.901240  0.004700  1.0  -0.7951
  O  O113  1  0.030300  0.552500  0.118900  1.0  -0.5738
  O  O114  1  0.980330  0.401240  0.504700  1.0  -0.7939
  O  O115  1  0.886270  0.098760  0.995300  1.0  -0.7941
  O  O116  1  0.263500  0.226500  0.544500  1.0  -0.7176
  O  O117  1  0.321210  0.817580  0.574000  1.0  -0.5823
  O  O118  1  0.790530  0.533440  0.621700  1.0  -0.7178
  O  O119  1  0.054330  0.033440  0.121700  1.0  -0.7171
  O  O120  1  0.260360  0.600880  0.482600  1.0  -0.643
  O  O121  1  0.736500  0.773500  0.455500  1.0  -0.717
  O  O122  1  0.732610  0.836680  0.946100  1.0  -0.7089
  O  O123  1  0.969700  0.447500  0.881100  1.0  -0.5723
  O  O124  1  0.515390  0.663320  0.553900  1.0  -0.7111
  O  O125  1  0.965500  0.726500  0.044500  1.0  -0.7188
  O  O126  1  0.209470  0.466560  0.378300  1.0  -0.7166
  O  O127  1  0.164680  0.496540  0.261500  1.0  -0.5842
  O  O128  1  0.034500  0.273500  0.955500  1.0  -0.719
  O  O129  1  0.701700  0.947500  0.381100  1.0  -0.5732
  O  O130  1  0.656160  0.100880  0.982600  1.0  -0.6393
  O  O131  1  0.343840  0.899120  0.017400  1.0  -0.6413
  O  O132  1  0.678790  0.182420  0.426000  1.0  -0.5826
