# generated using pymatgen
data_DyCoH7C12(NO2)4
_symmetry_space_group_name_H-M   'P 1'
_cell_length_a   9.15230000
_cell_length_b   12.99430000
_cell_length_c   18.42710000
_cell_angle_alpha   72.46160000
_cell_angle_beta   75.62080000
_cell_angle_gamma   69.38020000
_symmetry_Int_Tables_number   1
_chemical_formula_structural   DyCoH7C12(NO2)4
_chemical_formula_sum   'Dy4 Co4 H28 C48 N16 O32'
_cell_volume   1930.76394005
_cell_formula_units_Z   4
loop_
 _symmetry_equiv_pos_site_id
 _symmetry_equiv_pos_as_xyz
  1  'x, y, z'
loop_
 _atom_site_type_symbol
 _atom_site_label
 _atom_site_symmetry_multiplicity
 _atom_site_fract_x
 _atom_site_fract_y
 _atom_site_fract_z
 _atom_site_occupancy
 _atom_site_charge
  Dy  Dy1  1  0.237180  0.409680  0.505380  1.0  2.2585
  Dy  Dy2  1  0.847760  0.909680  0.005380  1.0  2.2607
  Dy  Dy3  1  0.152240  0.090320  0.994620  1.0  2.2601
  Dy  Dy4  1  0.762820  0.590320  0.494620  1.0  2.2571
  Co  Co5  1  0.776750  0.585820  0.836880  1.0  0.9336
  Co  Co6  1  0.800550  0.085820  0.336880  1.0  0.9364
  Co  Co7  1  0.223250  0.414180  0.163120  1.0  0.9336
  Co  Co8  1  0.199450  0.914180  0.663120  1.0  0.9323
  H  H9  1  0.458800  0.303300  0.962500  1.0  0.2887
  H  H10  1  0.492700  0.824100  0.862300  1.0  0.1395
  H  H11  1  0.367900  0.550900  0.846900  1.0  0.1327
  H  H12  1  0.891900  0.420900  0.310900  1.0  0.1475
  H  H13  1  0.358500  0.596800  0.918000  1.0  0.1215
  H  H14  1  0.765700  0.949100  0.653100  1.0  0.1319
  H  H15  1  0.716300  0.499200  0.071800  1.0  0.1318
  H  H16  1  0.006400  0.682600  0.634400  1.0  0.121
  H  H17  1  0.126700  0.096800  0.418000  1.0  0.1223
  H  H18  1  0.873300  0.903200  0.582000  1.0  0.1224
  H  H19  1  0.724600  0.196700  0.537500  1.0  0.2861
  H  H20  1  0.275400  0.803300  0.462500  1.0  0.2873
  H  H21  1  0.641500  0.403200  0.082000  1.0  0.1211
  H  H22  1  0.287300  0.000800  0.428200  1.0  0.1319
  H  H23  1  0.376300  0.920900  0.810900  1.0  0.1475
  H  H24  1  0.507300  0.175900  0.137700  1.0  0.1378
  H  H25  1  0.283700  0.500800  0.928200  1.0  0.1315
  H  H26  1  0.820900  0.324100  0.362300  1.0  0.1437
  H  H27  1  0.108100  0.579100  0.689100  1.0  0.1457
  H  H28  1  0.632100  0.449100  0.153100  1.0  0.1331
  H  H29  1  0.993600  0.317400  0.365600  1.0  0.1229
  H  H30  1  0.676600  0.182600  0.134400  1.0  0.1257
  H  H31  1  0.234300  0.050900  0.346900  1.0  0.1323
  H  H32  1  0.623700  0.079100  0.189100  1.0  0.1447
  H  H33  1  0.712700  0.999200  0.571800  1.0  0.1303
  H  H34  1  0.541200  0.696700  0.037500  1.0  0.2879
  H  H35  1  0.323400  0.817400  0.865600  1.0  0.1241
  H  H36  1  0.179100  0.675900  0.637700  1.0  0.142
  C  C37  1  0.381200  0.341400  0.296800  1.0  -0.0139
  C  C38  1  0.019400  0.158600  0.203200  1.0  -0.0162
  C  C39  1  0.520700  0.444800  0.918000  1.0  0.4066
  C  C40  1  0.473600  0.779600  0.769600  1.0  0.4575
  C  C41  1  0.198300  0.030900  0.401300  1.0  -0.4327
  C  C42  1  0.056300  0.139700  0.571100  1.0  0.005
  C  C43  1  0.526400  0.220400  0.230400  1.0  0.4578
  C  C44  1  0.618800  0.658600  0.703200  1.0  -0.0156
  C  C45  1  0.692300  0.277300  0.956500  1.0  -0.0676
  C  C46  1  0.067800  0.639100  0.077500  1.0  0.6898
  C  C47  1  0.253100  0.847800  0.020600  1.0  0.6865
  C  C48  1  0.997500  0.060900  0.187700  1.0  0.686
  C  C49  1  0.893400  0.766900  0.836300  1.0  -0.0128
  C  C50  1  0.630500  0.469100  0.098700  1.0  -0.4341
  C  C51  1  0.084700  0.658900  0.667300  1.0  -0.4343
  C  C52  1  0.943700  0.860300  0.428900  1.0  0.0041
  C  C53  1  0.883500  0.055200  0.582000  1.0  0.4043
  C  C54  1  0.022800  0.720400  0.730400  1.0  0.4582
  C  C55  1  0.442300  0.741000  0.592800  1.0  0.6957
  C  C56  1  0.915300  0.341100  0.332700  1.0  -0.4348
  C  C57  1  0.121500  0.652200  0.479400  1.0  0.6834
  C  C58  1  0.926100  0.222700  0.543500  1.0  -0.0716
  C  C59  1  0.784400  0.860900  0.422500  1.0  0.6909
  C  C60  1  0.073900  0.777300  0.456500  1.0  -0.0685
  C  C61  1  0.116500  0.944800  0.418000  1.0  0.4057
  C  C62  1  0.307700  0.722700  0.043500  1.0  -0.0716
  C  C63  1  0.479300  0.555200  0.082000  1.0  0.4068
  C  C64  1  0.369500  0.530900  0.901300  1.0  -0.4338
  C  C65  1  0.557700  0.259000  0.407200  1.0  0.6957
  C  C66  1  0.776100  0.759000  0.907200  1.0  0.6943
  C  C67  1  0.801700  0.969100  0.598700  1.0  -0.4329
  C  C68  1  0.980600  0.841400  0.796800  1.0  -0.0156
  C  C69  1  0.223900  0.241000  0.092800  1.0  0.6984
  C  C70  1  0.878500  0.347800  0.520600  1.0  0.6829
  C  C71  1  0.932200  0.360900  0.922500  1.0  0.6908
  C  C72  1  0.215600  0.139100  0.577500  1.0  0.6907
  C  C73  1  0.977200  0.279600  0.269600  1.0  0.4584
  C  C74  1  0.246100  0.439100  0.312300  1.0  0.6871
  C  C75  1  0.496600  0.733100  0.663700  1.0  -0.0127
  C  C76  1  0.503400  0.266900  0.336300  1.0  -0.0127
  C  C77  1  0.232900  0.639700  0.071100  1.0  0.0025
  C  C78  1  0.767100  0.360300  0.928900  1.0  0.0016
  C  C79  1  0.589100  0.158900  0.167300  1.0  -0.4342
  C  C80  1  0.410900  0.841100  0.832700  1.0  -0.4349
  C  C81  1  0.753900  0.560900  0.687700  1.0  0.6887
  C  C82  1  0.106600  0.233100  0.163700  1.0  -0.0129
  C  C83  1  0.002500  0.939100  0.812300  1.0  0.6847
  C  C84  1  0.746900  0.152200  0.979400  1.0  0.6862
  N  N85  1  0.026300  0.037300  0.596100  1.0  -0.4273
  N  N86  1  0.078100  0.309000  0.207400  1.0  -0.4515
  N  N87  1  0.063000  0.809400  0.730600  1.0  -0.4543
  N  N88  1  0.603000  0.690600  0.769400  1.0  -0.4532
  N  N89  1  0.180700  0.834300  0.449100  1.0  -0.2596
  N  N90  1  0.464100  0.665700  0.050900  1.0  -0.2554
  N  N91  1  0.659700  0.462700  0.903900  1.0  -0.4283
  N  N92  1  0.937000  0.190600  0.269400  1.0  -0.4545
  N  N93  1  0.921900  0.691000  0.792600  1.0  -0.4518
  N  N94  1  0.340300  0.537300  0.096100  1.0  -0.4282
  N  N95  1  0.405500  0.809000  0.707400  1.0  -0.4513
  N  N96  1  0.973700  0.962700  0.403900  1.0  -0.4279
  N  N97  1  0.819300  0.165700  0.550900  1.0  -0.2606
  N  N98  1  0.594500  0.191000  0.292600  1.0  -0.4497
  N  N99  1  0.397000  0.309400  0.230600  1.0  -0.4548
  N  N100  1  0.535900  0.334300  0.949100  1.0  -0.2562
  O  O101  1  0.833700  0.505000  0.740800  1.0  -0.5728
  O  O102  1  0.031000  0.275100  0.955900  1.0  -0.739
  O  O103  1  0.079500  0.995000  0.759200  1.0  -0.5698
  O  O104  1  0.920500  0.005000  0.240800  1.0  -0.5709
  O  O105  1  0.979000  0.400900  0.504900  1.0  -0.8364
  O  O106  1  0.166300  0.495000  0.259200  1.0  -0.5713
  O  O107  1  0.487000  0.333333  0.446100  1.0  -0.7055
  O  O108  1  0.788800  0.534400  0.622400  1.0  -0.7159
  O  O109  1  0.734700  0.401100  0.518500  1.0  -0.6413
  O  O110  1  0.513000  0.666667  0.553900  1.0  -0.7066
  O  O111  1  0.678000  0.178700  0.425100  1.0  -0.5578
  O  O112  1  0.281800  0.321300  0.074900  1.0  -0.5598
  O  O113  1  0.211200  0.465600  0.377600  1.0  -0.7131
  O  O114  1  0.036700  0.550300  0.115300  1.0  -0.5798
  O  O115  1  0.297700  0.050300  0.615300  1.0  -0.5795
  O  O116  1  0.262000  0.224900  0.544100  1.0  -0.7377
  O  O117  1  0.718200  0.678700  0.925100  1.0  -0.5594
  O  O118  1  0.733600  0.833300  0.946100  1.0  -0.704
  O  O119  1  0.115200  0.900900  0.004900  1.0  -0.8368
  O  O120  1  0.884800  0.099100  0.995100  1.0  -0.8345
  O  O121  1  0.021000  0.599100  0.495100  1.0  -0.8348
  O  O122  1  0.322000  0.821300  0.574900  1.0  -0.56
  O  O123  1  0.054400  0.034400  0.122400  1.0  -0.7157
  O  O124  1  0.963300  0.449700  0.884700  1.0  -0.5787
  O  O125  1  0.969000  0.724900  0.044100  1.0  -0.7396
  O  O126  1  0.702300  0.949700  0.384700  1.0  -0.5783
  O  O127  1  0.738000  0.775100  0.455900  1.0  -0.7378
  O  O128  1  0.265300  0.598900  0.481500  1.0  -0.6447
  O  O129  1  0.345700  0.901100  0.018500  1.0  -0.6414
  O  O130  1  0.654300  0.098900  0.981500  1.0  -0.6386
  O  O131  1  0.266400  0.166700  0.053900  1.0  -0.7053
  O  O132  1  0.945600  0.965600  0.877600  1.0  -0.713
