# generated using pymatgen
data_MnH4C8O5
_symmetry_space_group_name_H-M   'P 1'
_cell_length_a   9.73000000
_cell_length_b   11.75500000
_cell_length_c   12.50900000
_cell_angle_alpha   62.69800000
_cell_angle_beta   71.90600000
_cell_angle_gamma   75.29900000
_symmetry_Int_Tables_number   1
_chemical_formula_structural   MnH4C8O5
_chemical_formula_sum   'Mn4 H16 C32 O20'
_cell_volume   1197.93800560
_cell_formula_units_Z   4
loop_
 _symmetry_equiv_pos_site_id
 _symmetry_equiv_pos_as_xyz
  1  'x, y, z'
loop_
 _atom_site_type_symbol
 _atom_site_label
 _atom_site_symmetry_multiplicity
 _atom_site_fract_x
 _atom_site_fract_y
 _atom_site_fract_z
 _atom_site_occupancy
 _atom_site_charge
  Mn  Mn1  1  0.913540  0.831950  0.861950  1.0  1.1103
  Mn  Mn2  1  0.086460  0.168050  0.138050  1.0  1.1119
  Mn  Mn3  1  0.000000  0.500000  0.000000  1.0  1.26
  Mn  Mn4  1  0.000000  0.000000  0.000000  1.0  1.2116
  H  H5  1  0.443000  0.321900  0.281200  1.0  0.4433
  H  H6  1  0.745100  0.596100  0.582800  1.0  0.3636
  H  H7  1  0.601800  0.480000  0.156200  1.0  0.1116
  H  H8  1  0.181100  0.521700  0.150400  1.0  0.0978
  H  H9  1  0.424700  0.805700  0.910000  1.0  0.1174
  H  H10  1  0.944000  0.150500  0.520200  1.0  0.1127
  H  H11  1  0.873000  0.535800  0.336500  1.0  0.1159
  H  H12  1  0.829000  0.376900  0.704800  1.0  0.0994
  H  H13  1  0.557000  0.678100  0.718800  1.0  0.4439
  H  H14  1  0.254900  0.403900  0.417200  1.0  0.3644
  H  H15  1  0.398200  0.520000  0.843800  1.0  0.1115
  H  H16  1  0.818900  0.478300  0.849600  1.0  0.0979
  H  H17  1  0.575300  0.194300  0.090000  1.0  0.1175
  H  H18  1  0.056000  0.849500  0.479800  1.0  0.1117
  H  H19  1  0.127000  0.464200  0.663500  1.0  0.1157
  H  H20  1  0.171000  0.623100  0.295200  1.0  0.0985
  C  C21  1  0.682000  0.696100  0.968300  1.0  0.6734
  C  C22  1  0.156200  0.749600  0.965800  1.0  0.7016
  C  C23  1  0.911500  0.128900  0.746700  1.0  0.7301
  C  C24  1  0.956800  0.330200  0.287500  1.0  0.7209
  C  C25  1  0.536300  0.648900  0.023300  1.0  -0.146
  C  C26  1  0.521800  0.529000  0.122900  1.0  -0.1453
  C  C27  1  0.388500  0.483100  0.172300  1.0  0.2886
  C  C28  1  0.269500  0.554600  0.119700  1.0  -0.1494
  C  C29  1  0.283600  0.674900  0.021300  1.0  -0.1102
  C  C30  1  0.416200  0.723900  0.973900  1.0  -0.0298
  C  C31  1  0.893400  0.247100  0.629200  1.0  -0.1339
  C  C32  1  0.921400  0.232500  0.519700  1.0  0.0118
  C  C33  1  0.915500  0.341600  0.409200  1.0  -0.1611
  C  C34  1  0.874600  0.462900  0.410500  1.0  -0.1133
  C  C35  1  0.836000  0.476800  0.520500  1.0  0.328
  C  C36  1  0.849400  0.368000  0.631100  1.0  -0.1511
  C  C37  1  0.318000  0.303900  0.031700  1.0  0.6738
  C  C38  1  0.843800  0.250400  0.034200  1.0  0.7015
  C  C39  1  0.088500  0.871100  0.253300  1.0  0.7303
  C  C40  1  0.043200  0.669800  0.712500  1.0  0.7219
  C  C41  1  0.463700  0.351100  0.976700  1.0  -0.1465
  C  C42  1  0.478200  0.471000  0.877100  1.0  -0.144
  C  C43  1  0.611500  0.516900  0.827700  1.0  0.2888
  C  C44  1  0.730500  0.445400  0.880300  1.0  -0.1471
  C  C45  1  0.716400  0.325100  0.978700  1.0  -0.1103
  C  C46  1  0.583800  0.276100  0.026100  1.0  -0.0301
  C  C47  1  0.106600  0.752900  0.370800  1.0  -0.1341
  C  C48  1  0.078600  0.767500  0.480300  1.0  0.0128
  C  C49  1  0.084500  0.658400  0.590800  1.0  -0.1609
  C  C50  1  0.125400  0.537100  0.589500  1.0  -0.1142
  C  C51  1  0.164000  0.523200  0.479500  1.0  0.3274
  C  C52  1  0.150600  0.632000  0.368900  1.0  -0.1525
  O  O53  1  0.691000  0.811000  0.891600  1.0  -0.5977
  O  O54  1  0.791500  0.619700  0.002700  1.0  -0.6912
  O  O55  1  0.141700  0.870500  0.913700  1.0  -0.6885
  O  O56  1  0.062100  0.686800  0.972000  1.0  -0.669
  O  O57  1  0.896100  0.025200  0.749500  1.0  -0.6019
  O  O58  1  0.945100  0.141400  0.829700  1.0  -0.6267
  O  O59  1  0.990400  0.219700  0.288600  1.0  -0.599
  O  O60  1  0.954400  0.435900  0.192600  1.0  -0.6309
  O  O61  1  0.365100  0.368800  0.273500  1.0  -0.5134
  O  O62  1  0.790100  0.599600  0.514200  1.0  -0.5057
  O  O63  1  0.309000  0.189000  0.108400  1.0  -0.598
  O  O64  1  0.208500  0.380300  0.997300  1.0  -0.691
  O  O65  1  0.858300  0.129500  0.086300  1.0  -0.6862
  O  O66  1  0.937900  0.313200  0.028000  1.0  -0.6675
  O  O67  1  0.103900  0.974800  0.250500  1.0  -0.6033
  O  O68  1  0.054900  0.858600  0.170300  1.0  -0.627
  O  O69  1  0.009600  0.780300  0.711400  1.0  -0.599
  O  O70  1  0.045600  0.564100  0.807400  1.0  -0.6304
  O  O71  1  0.634900  0.631200  0.726500  1.0  -0.5141
  O  O72  1  0.209900  0.400400  0.485800  1.0  -0.5069
