# generated using pymatgen
data_MnH4(C2O)4
_symmetry_space_group_name_H-M   'P 1'
_cell_length_a   13.07210000
_cell_length_b   13.07210000
_cell_length_c   11.14660000
_cell_angle_alpha   90.00000000
_cell_angle_beta   90.00000000
_cell_angle_gamma   90.00000000
_symmetry_Int_Tables_number   1
_chemical_formula_structural   MnH4(C2O)4
_chemical_formula_sum   'Mn8 H32 C64 O32'
_cell_volume   1904.72876096
_cell_formula_units_Z   8
loop_
 _symmetry_equiv_pos_site_id
 _symmetry_equiv_pos_as_xyz
  1  'x, y, z'
loop_
 _atom_site_type_symbol
 _atom_site_label
 _atom_site_symmetry_multiplicity
 _atom_site_fract_x
 _atom_site_fract_y
 _atom_site_fract_z
 _atom_site_occupancy
 _atom_site_charge
  Mn  Mn1  1  0.758230  0.488570  0.311340  1.0  1.1101
  Mn  Mn2  1  0.751830  0.719640  0.159870  1.0  1.1154
  Mn  Mn3  1  0.241770  0.511430  0.811340  1.0  1.1127
  Mn  Mn4  1  0.248170  0.280360  0.659870  1.0  1.1177
  Mn  Mn5  1  0.511430  0.758230  0.061340  1.0  1.1115
  Mn  Mn6  1  0.280360  0.751830  0.909870  1.0  1.12
  Mn  Mn7  1  0.488570  0.241770  0.561340  1.0  1.106
  Mn  Mn8  1  0.719640  0.248170  0.409870  1.0  1.1167
  H  H9  1  0.488900  0.500700  0.423000  1.0  0.116
  H  H10  1  0.429500  0.798000  0.362300  1.0  0.1151
  H  H11  1  0.275900  0.781900  0.463100  1.0  0.1145
  H  H12  1  0.223700  0.624600  0.542400  1.0  0.1185
  H  H13  1  0.997300  0.377400  0.062200  1.0  0.1242
  H  H14  1  0.163900  0.129500  0.975300  1.0  0.1403
  H  H15  1  0.108900  0.051400  0.148700  1.0  0.1002
  H  H16  1  0.982600  0.123500  0.265900  1.0  0.1314
  H  H17  1  0.511100  0.499300  0.923000  1.0  0.1162
  H  H18  1  0.570500  0.202000  0.862300  1.0  0.1158
  H  H19  1  0.724100  0.218100  0.963100  1.0  0.1145
  H  H20  1  0.776300  0.375400  0.042400  1.0  0.1182
  H  H21  1  0.002700  0.622600  0.562200  1.0  0.1245
  H  H22  1  0.836100  0.870500  0.475300  1.0  0.1405
  H  H23  1  0.891100  0.948600  0.648700  1.0  0.101
  H  H24  1  0.017400  0.876500  0.765900  1.0  0.1313
  H  H25  1  0.499300  0.488900  0.173000  1.0  0.1151
  H  H26  1  0.202000  0.429500  0.112300  1.0  0.1154
  H  H27  1  0.218100  0.275900  0.213100  1.0  0.1147
  H  H28  1  0.375400  0.223700  0.292400  1.0  0.1184
  H  H29  1  0.622600  0.997300  0.812200  1.0  0.1232
  H  H30  1  0.870500  0.163900  0.725300  1.0  0.1397
  H  H31  1  0.948600  0.108900  0.898700  1.0  0.0998
  H  H32  1  0.876500  0.982600  0.015900  1.0  0.1317
  H  H33  1  0.500700  0.511100  0.673000  1.0  0.1154
  H  H34  1  0.798000  0.570500  0.612300  1.0  0.1149
  H  H35  1  0.781900  0.724100  0.713100  1.0  0.1143
  H  H36  1  0.624600  0.776300  0.792400  1.0  0.1183
  H  H37  1  0.377400  0.002700  0.312200  1.0  0.1236
  H  H38  1  0.129500  0.836100  0.225300  1.0  0.1392
  H  H39  1  0.051400  0.891100  0.398700  1.0  0.0996
  H  H40  1  0.123500  0.017400  0.515900  1.0  0.1316
  C  C41  1  0.575200  0.660600  0.318600  1.0  0.6985
  C  C42  1  0.326700  0.446300  0.546000  1.0  0.6965
  C  C43  1  0.902600  0.309100  0.259900  1.0  0.735
  C  C44  1  0.131700  0.313400  0.892500  1.0  0.7466
  C  C45  1  0.353600  0.546700  0.488800  1.0  -0.1196
  C  C46  1  0.445600  0.556800  0.430400  1.0  -0.0504
  C  C47  1  0.474200  0.652300  0.381700  1.0  -0.0665
  C  C48  1  0.410600  0.735000  0.394200  1.0  -0.0118
  C  C49  1  0.318200  0.725200  0.454300  1.0  -0.118
  C  C50  1  0.288000  0.631500  0.501500  1.0  -0.055
  C  C51  1  0.980100  0.260100  0.178900  1.0  -0.1518
  C  C52  1  0.018000  0.310700  0.078500  1.0  -0.0447
  C  C53  1  0.086400  0.262100  0.002800  1.0  -0.1087
  C  C54  1  0.119000  0.162900  0.026800  1.0  -0.114
  C  C55  1  0.083300  0.115500  0.128600  1.0  -0.0906
  C  C56  1  0.010600  0.159800  0.202100  1.0  -0.0645
  C  C57  1  0.424800  0.339400  0.818600  1.0  0.6975
  C  C58  1  0.673300  0.553700  0.046000  1.0  0.6948
  C  C59  1  0.097400  0.690900  0.759900  1.0  0.7353
  C  C60  1  0.868300  0.686600  0.392500  1.0  0.7467
  C  C61  1  0.646400  0.453300  0.988800  1.0  -0.1194
  C  C62  1  0.554400  0.443200  0.930400  1.0  -0.0493
  C  C63  1  0.525800  0.347700  0.881700  1.0  -0.0661
  C  C64  1  0.589400  0.265000  0.894200  1.0  -0.0103
  C  C65  1  0.681800  0.274800  0.954300  1.0  -0.1174
  C  C66  1  0.712000  0.368500  0.001500  1.0  -0.0543
  C  C67  1  0.019900  0.739900  0.678900  1.0  -0.1514
  C  C68  1  0.982000  0.689300  0.578500  1.0  -0.0426
  C  C69  1  0.913600  0.737900  0.502800  1.0  -0.1087
  C  C70  1  0.881000  0.837100  0.526800  1.0  -0.1125
  C  C71  1  0.916700  0.884500  0.628600  1.0  -0.0903
  C  C72  1  0.989400  0.840200  0.702100  1.0  -0.0641
  C  C73  1  0.339400  0.575200  0.068600  1.0  0.7011
  C  C74  1  0.553700  0.326700  0.296000  1.0  0.6948
  C  C75  1  0.690900  0.902600  0.009900  1.0  0.7378
  C  C76  1  0.686600  0.131700  0.642500  1.0  0.748
  C  C77  1  0.453300  0.353600  0.238800  1.0  -0.1147
  C  C78  1  0.443200  0.445600  0.180400  1.0  -0.0523
  C  C79  1  0.347700  0.474200  0.131700  1.0  -0.0676
  C  C80  1  0.265000  0.410600  0.144200  1.0  -0.0084
  C  C81  1  0.274800  0.318200  0.204300  1.0  -0.1179
  C  C82  1  0.368500  0.288000  0.251500  1.0  -0.0588
  C  C83  1  0.739900  0.980100  0.928900  1.0  -0.1511
  C  C84  1  0.689300  0.018000  0.828500  1.0  -0.0403
  C  C85  1  0.737900  0.086400  0.752800  1.0  -0.1092
  C  C86  1  0.837100  0.119000  0.776800  1.0  -0.1132
  C  C87  1  0.884500  0.083300  0.878600  1.0  -0.0954
  C  C88  1  0.840200  0.010600  0.952100  1.0  -0.0631
  C  C89  1  0.660600  0.424800  0.568600  1.0  0.7013
  C  C90  1  0.446300  0.673300  0.796000  1.0  0.6941
  C  C91  1  0.309100  0.097400  0.509900  1.0  0.7381
  C  C92  1  0.313400  0.868300  0.142500  1.0  0.7477
  C  C93  1  0.546700  0.646400  0.738800  1.0  -0.1155
  C  C94  1  0.556800  0.554400  0.680400  1.0  -0.0507
  C  C95  1  0.652300  0.525800  0.631700  1.0  -0.0678
  C  C96  1  0.735000  0.589400  0.644200  1.0  -0.0104
  C  C97  1  0.725200  0.681800  0.704300  1.0  -0.1175
  C  C98  1  0.631500  0.712000  0.751500  1.0  -0.0546
  C  C99  1  0.260100  0.019900  0.428900  1.0  -0.151
  C  C100  1  0.310700  0.982000  0.328500  1.0  -0.0408
  C  C101  1  0.262100  0.913600  0.252800  1.0  -0.1089
  C  C102  1  0.162900  0.881000  0.276800  1.0  -0.1108
  C  C103  1  0.115500  0.916700  0.378600  1.0  -0.0948
  C  C104  1  0.159800  0.989400  0.452100  1.0  -0.0639
  O  O105  1  0.643300  0.594500  0.348600  1.0  -0.6762
  O  O106  1  0.591000  0.729800  0.240300  1.0  -0.6602
  O  O107  1  0.371000  0.365100  0.514500  1.0  -0.6621
  O  O108  1  0.256100  0.444900  0.626200  1.0  -0.6582
  O  O109  1  0.868000  0.256800  0.344100  1.0  -0.606
  O  O110  1  0.877300  0.398600  0.235900  1.0  -0.5901
  O  O111  1  0.168500  0.255300  0.815700  1.0  -0.6138
  O  O112  1  0.128300  0.408600  0.885900  1.0  -0.6088
  O  O113  1  0.356700  0.405500  0.848600  1.0  -0.6757
  O  O114  1  0.409000  0.270200  0.740300  1.0  -0.661
  O  O115  1  0.629000  0.634900  0.014500  1.0  -0.6608
  O  O116  1  0.743900  0.555100  0.126200  1.0  -0.6591
  O  O117  1  0.132000  0.743200  0.844100  1.0  -0.6047
  O  O118  1  0.122700  0.601400  0.735900  1.0  -0.59
  O  O119  1  0.831500  0.744700  0.315700  1.0  -0.6134
  O  O120  1  0.871700  0.591400  0.385900  1.0  -0.6117
  O  O121  1  0.405500  0.643300  0.098600  1.0  -0.6809
  O  O122  1  0.270200  0.591000  0.990300  1.0  -0.6592
  O  O123  1  0.634900  0.371000  0.264500  1.0  -0.6585
  O  O124  1  0.555100  0.256100  0.376200  1.0  -0.6594
  O  O125  1  0.743200  0.868000  0.094100  1.0  -0.6058
  O  O126  1  0.601400  0.877300  0.985900  1.0  -0.5909
  O  O127  1  0.744700  0.168500  0.565700  1.0  -0.6126
  O  O128  1  0.591400  0.128300  0.635900  1.0  -0.6067
  O  O129  1  0.594500  0.356700  0.598600  1.0  -0.6803
  O  O130  1  0.729800  0.409000  0.490300  1.0  -0.6595
  O  O131  1  0.365100  0.629000  0.764500  1.0  -0.6599
  O  O132  1  0.444900  0.743900  0.876200  1.0  -0.6591
  O  O133  1  0.256800  0.132000  0.594100  1.0  -0.6057
  O  O134  1  0.398600  0.122700  0.485900  1.0  -0.5906
  O  O135  1  0.255300  0.831500  0.065700  1.0  -0.6125
  O  O136  1  0.408600  0.871700  0.135900  1.0  -0.6069
