# generated using pymatgen
data_UH21(C3O)6
_symmetry_space_group_name_H-M   'P 1'
_cell_length_a   12.33310000
_cell_length_b   14.73880000
_cell_length_c   14.99460000
_cell_angle_alpha   111.54600000
_cell_angle_beta   105.07500000
_cell_angle_gamma   106.26700000
_symmetry_Int_Tables_number   1
_chemical_formula_structural   UH21(C3O)6
_chemical_formula_sum   'U4 H84 C72 O24'
_cell_volume   2223.55091219
_cell_formula_units_Z   4
loop_
 _symmetry_equiv_pos_site_id
 _symmetry_equiv_pos_as_xyz
  1  'x, y, z'
loop_
 _atom_site_type_symbol
 _atom_site_label
 _atom_site_symmetry_multiplicity
 _atom_site_fract_x
 _atom_site_fract_y
 _atom_site_fract_z
 _atom_site_occupancy
 _atom_site_charge
  U  U1  1  0.445230  0.033420  0.452410  1.0  1.8987
  U  U2  1  0.659230  0.796010  0.867800  1.0  1.7336
  U  U3  1  0.690150  0.455130  0.203020  1.0  1.758
  U  U4  1  0.137370  0.684600  0.808290  1.0  1.8697
  H  H5  1  0.614300  0.051800  0.192900  1.0  0.1117
  H  H6  1  0.652700  0.967800  0.222300  1.0  0.0873
  H  H7  1  0.762000  0.181300  0.160500  1.0  0.0984
  H  H8  1  0.894000  0.179300  0.170800  1.0  0.0772
  H  H9  1  0.916500  0.324900  0.325000  1.0  0.0752
  H  H10  1  0.721300  0.249300  0.324700  1.0  0.0963
  H  H11  1  0.827000  0.289200  0.436600  1.0  0.0982
  H  H12  1  0.815200  0.030100  0.397400  1.0  0.0681
  H  H13  1  0.881500  0.155000  0.483000  1.0  0.0901
  H  H14  1  0.018100  0.110800  0.401800  1.0  0.0865
  H  H15  1  0.859300  0.964500  0.237800  1.0  0.1115
  H  H16  1  0.953000  0.045400  0.216000  1.0  0.068
  H  H17  1  0.059700  0.244500  0.346700  1.0  0.0701
  H  H18  1  0.035000  0.288500  0.451200  1.0  0.0813
  H  H19  1  0.362100  0.779200  0.594000  1.0  0.1009
  H  H20  1  0.228000  0.774000  0.541700  1.0  0.0963
  H  H21  1  0.039800  0.597000  0.446900  1.0  0.104
  H  H22  1  0.054900  0.490000  0.438700  1.0  0.0818
  H  H23  1  0.027200  0.490900  0.275200  1.0  0.0655
  H  H24  1  0.113500  0.684300  0.345900  1.0  0.1065
  H  H25  1  0.174400  0.633000  0.269600  1.0  0.1043
  H  H26  1  0.461200  0.699000  0.475600  1.0  0.0831
  H  H27  1  0.387200  0.640300  0.350700  1.0  0.0973
  H  H28  1  0.376000  0.511400  0.410300  1.0  0.0875
  H  H29  1  0.386300  0.610000  0.580700  1.0  0.0991
  H  H30  1  0.266900  0.497200  0.518200  1.0  0.0968
  H  H31  1  0.160100  0.409700  0.322800  1.0  0.0745
  H  H32  1  0.207900  0.467200  0.259300  1.0  0.0779
  H  H33  1  0.406600  0.399400  0.627700  1.0  0.1065
  H  H34  1  0.527500  0.396900  0.697600  1.0  0.1026
  H  H35  1  0.580000  0.454200  0.891200  1.0  0.0971
  H  H36  1  0.488400  0.487800  0.941300  1.0  0.1048
  H  H37  1  0.457200  0.308500  0.906100  1.0  0.0774
  H  H38  1  0.372600  0.171800  0.730000  1.0  0.1031
  H  H39  1  0.507200  0.256500  0.759000  1.0  0.0975
  H  H40  1  0.193000  0.262400  0.584100  1.0  0.0932
  H  H41  1  0.184800  0.175500  0.625000  1.0  0.083
  H  H42  1  0.141000  0.314600  0.730800  1.0  0.0738
  H  H43  1  0.266600  0.456600  0.711700  1.0  0.1064
  H  H44  1  0.302500  0.493200  0.834000  1.0  0.096
  H  H45  1  0.235400  0.231100  0.814100  1.0  0.0802
  H  H46  1  0.283200  0.355200  0.896300  1.0  0.0789
  H  H47  1  0.804700  0.704500  0.578400  1.0  0.091
  H  H48  1  0.676300  0.703500  0.517400  1.0  0.0867
  H  H49  1  0.782900  0.844700  0.384500  1.0  0.105
  H  H50  1  0.662100  0.788600  0.399400  1.0  0.1028
  H  H51  1  0.743600  0.979100  0.502900  1.0  0.0676
  H  H52  1  0.757200  0.985300  0.668200  1.0  0.0957
  H  H53  1  0.646000  0.875100  0.574100  1.0  0.0929
  H  H54  1  0.978400  0.879900  0.728100  1.0  0.0912
  H  H55  1  0.957600  0.988300  0.761900  1.0  0.0757
  H  H56  1  0.075600  0.984300  0.658600  1.0  0.0811
  H  H57  1  0.999800  0.795500  0.557600  1.0  0.1114
  H  H58  1  0.990000  0.848400  0.481000  1.0  0.0994
  H  H59  1  0.957200  0.018400  0.534000  1.0  0.0695
  H  H60  1  0.946000  0.073100  0.643600  1.0  0.0607
  H  H61  1  0.363200  0.085000  0.012100  1.0  0.0896
  H  H62  1  0.400500  0.070400  0.115000  1.0  0.1091
  H  H63  1  0.036900  0.980200  0.942800  1.0  0.085
  H  H64  1  0.139100  0.029400  0.905700  1.0  0.0771
  H  H65  1  0.075900  0.164300  0.992300  1.0  0.0751
  H  H66  1  0.272500  0.301300  0.117000  1.0  0.0919
  H  H67  1  0.284200  0.227400  0.013500  1.0  0.0929
  H  H68  1  0.386000  0.187100  0.276600  1.0  0.1047
  H  H69  1  0.335300  0.276800  0.279400  1.0  0.0993
  H  H70  1  0.173600  0.123100  0.255600  1.0  0.0765
  H  H71  1  0.091500  0.955000  0.098200  1.0  0.0929
  H  H72  1  0.232700  0.986200  0.167100  1.0  0.1045
  H  H73  1  0.111000  0.220100  0.172600  1.0  0.0667
  H  H74  1  0.019000  0.095200  0.102500  1.0  0.0782
  H  H75  1  0.947300  0.531800  0.003000  1.0  0.0967
  H  H76  1  0.815800  0.467700  0.904500  1.0  0.0955
  H  H77  1  0.946200  0.315600  0.060700  1.0  0.0887
  H  H78  1  0.026000  0.439500  0.097500  1.0  0.0744
  H  H79  1  0.108200  0.328100  0.997700  1.0  0.0808
  H  H80  1  0.114600  0.399000  0.879200  1.0  0.0763
  H  H81  1  0.129700  0.489300  0.988000  1.0  0.1053
  H  H82  1  0.792100  0.324600  0.732600  1.0  0.0924
  H  H83  1  0.907900  0.299000  0.723300  1.0  0.0976
  H  H84  1  0.772100  0.164900  0.743000  1.0  0.0769
  H  H85  1  0.692700  0.272600  0.842800  1.0  0.0802
  H  H86  1  0.744100  0.212500  0.901700  1.0  0.0924
  H  H87  1  0.919000  0.171900  0.889400  1.0  0.0725
  H  H88  1  0.986000  0.201700  0.819100  1.0  0.0597
  C  C89  1  0.739800  0.122600  0.347700  1.0  0.0759
  C  C90  1  0.684500  0.041600  0.231300  1.0  -0.2368
  C  C91  1  0.781400  0.055700  0.185800  1.0  0.0604
  C  C92  1  0.830200  0.169500  0.199400  1.0  -0.2524
  C  C93  1  0.886100  0.250500  0.316500  1.0  0.047
  C  C94  1  0.789900  0.236300  0.361200  1.0  -0.2208
  C  C95  1  0.846200  0.104200  0.407000  1.0  -0.2397
  C  C96  1  0.948000  0.122000  0.363000  1.0  0.0102
  C  C97  1  0.890000  0.037800  0.245500  1.0  -0.2643
  C  C98  1  0.996500  0.234900  0.375900  1.0  -0.218
  C  C99  1  0.638800  0.098700  0.387100  1.0  0.6532
  C  C100  1  0.729200  0.970800  0.072300  1.0  0.667
  C  C101  1  0.298700  0.715300  0.430100  1.0  0.0623
  C  C102  1  0.280900  0.734500  0.533500  1.0  -0.2314
  C  C103  1  0.220600  0.627300  0.532500  1.0  0.0805
  C  C104  1  0.094200  0.558900  0.439500  1.0  -0.2439
  C  C105  1  0.109700  0.537100  0.335800  1.0  0.013
  C  C106  1  0.167200  0.645800  0.336900  1.0  -0.2507
  C  C107  1  0.377900  0.654800  0.417600  1.0  -0.2212
  C  C108  1  0.320700  0.549300  0.418000  1.0  0.0415
  C  C109  1  0.304800  0.567100  0.520300  1.0  -0.2329
  C  C110  1  0.196800  0.480000  0.325300  1.0  -0.2038
  C  C111  1  0.350400  0.823000  0.431800  1.0  0.6972
  C  C112  1  0.200700  0.647400  0.631400  1.0  0.6726
  C  C113  1  0.365400  0.268000  0.655800  1.0  0.0628
  C  C114  1  0.440700  0.384900  0.685900  1.0  -0.2285
  C  C115  1  0.437200  0.462400  0.786100  1.0  0.0751
  C  C116  1  0.492200  0.439500  0.876800  1.0  -0.2299
  C  C117  1  0.420100  0.322600  0.847600  1.0  0.0389
  C  C118  1  0.421200  0.246900  0.748000  1.0  -0.2423
  C  C119  1  0.232500  0.250700  0.642900  1.0  -0.2289
  C  C120  1  0.228500  0.326500  0.742400  1.0  0.0477
  C  C121  1  0.304200  0.442800  0.769400  1.0  -0.2528
  C  C122  1  0.284500  0.305600  0.831000  1.0  -0.2017
  C  C123  1  0.367400  0.187000  0.561900  1.0  0.6474
  C  C124  1  0.513300  0.578100  0.814900  1.0  0.6852
  C  C125  1  0.797700  0.852800  0.646200  1.0  0.0702
  C  C126  1  0.767000  0.746100  0.552900  1.0  -0.2128
  C  C127  1  0.815400  0.765700  0.475000  1.0  0.0957
  C  C128  1  0.752800  0.831000  0.435400  1.0  -0.245
  C  C129  1  0.783700  0.937800  0.528300  1.0  0.0233
  C  C130  1  0.736900  0.916300  0.607900  1.0  -0.245
  C  C131  1  0.937600  0.919400  0.701500  1.0  -0.2516
  C  C132  1  0.984100  0.940600  0.622200  1.0  0.0325
  C  C133  1  0.958100  0.834500  0.531000  1.0  -0.2401
  C  C134  1  0.925300  0.003600  0.583700  1.0  -0.2243
  C  C135  1  0.748300  0.832700  0.722800  1.0  0.6801
  C  C136  1  0.779600  0.662700  0.381100  1.0  0.6969
  C  C137  1  0.353900  0.201300  0.139000  1.0  0.0876
  C  C138  1  0.342000  0.087600  0.072000  1.0  -0.216
  C  C139  1  0.212400  0.006500  0.032100  1.0  0.0986
  C  C140  1  0.122400  0.033200  0.967800  1.0  -0.259
  C  C141  1  0.135600  0.147100  0.035300  1.0  0.0386
  C  C142  1  0.264700  0.228500  0.073900  1.0  -0.2425
  C  C143  1  0.326600  0.204200  0.234400  1.0  -0.2561
  C  C144  1  0.193600  0.120800  0.194500  1.0  0.0493
  C  C145  1  0.178000  0.007100  0.125300  1.0  -0.2529
  C  C146  1  0.104900  0.148100  0.128700  1.0  -0.1995
  C  C147  1  0.482400  0.284100  0.173000  1.0  0.673
  C  C148  1  0.199600  0.896500  0.962900  1.0  0.7001
  C  C149  1  0.954300  0.428100  0.866300  1.0  0.0952
  C  C150  1  0.890300  0.461200  0.941100  1.0  -0.2348
  C  C151  1  0.853700  0.375600  0.976500  1.0  0.1029
  C  C152  1  0.968800  0.368800  0.035700  1.0  -0.2474
  C  C153  1  0.033000  0.334200  0.959800  1.0  0.0432
  C  C154  1  0.071900  0.419200  0.925800  1.0  -0.2505
  C  C155  1  0.866900  0.319800  0.771200  1.0  -0.2219
  C  C156  1  0.830500  0.235800  0.805700  1.0  0.0539
  C  C157  1  0.768600  0.268200  0.879900  1.0  -0.2333
  C  C158  1  0.944600  0.225800  0.865800  1.0  -0.207
  C  C159  1  0.001400  0.513100  0.835200  1.0  0.5953
  C  C160  1  0.793400  0.408000  0.051500  1.0  0.6928
  O  O161  1  0.603500  0.169900  0.431500  1.0  -0.6593
  O  O162  1  0.591200  0.006000  0.376300  1.0  -0.6417
  O  O163  1  0.658700  0.873200  0.044600  1.0  -0.6685
  O  O164  1  0.755800  0.990500  0.003900  1.0  -0.644
  O  O165  1  0.433400  0.846500  0.400000  1.0  -0.6506
  O  O166  1  0.305000  0.889800  0.465800  1.0  -0.6706
  O  O167  1  0.141300  0.568500  0.642900  1.0  -0.6773
  O  O168  1  0.235900  0.741800  0.704100  1.0  -0.6634
  O  O169  1  0.304500  0.089200  0.525000  1.0  -0.6404
  O  O170  1  0.449200  0.216000  0.526100  1.0  -0.6702
  O  O171  1  0.558100  0.600500  0.754900  1.0  -0.6547
  O  O172  1  0.531600  0.654700  0.901700  1.0  -0.6696
  O  O173  1  0.772800  0.911000  0.810400  1.0  -0.6588
  O  O174  1  0.684400  0.738200  0.702700  1.0  -0.6529
  O  O175  1  0.831100  0.654400  0.314300  1.0  -0.6558
  O  O176  1  0.694800  0.578700  0.364200  1.0  -0.6521
  O  O177  1  0.530500  0.373900  0.255400  1.0  -0.6685
  O  O178  1  0.540500  0.267600  0.113500  1.0  -0.6529
  O  O179  1  0.234900  0.881400  0.888700  1.0  -0.6605
  O  O180  1  0.149900  0.816000  0.973600  1.0  -0.656
  O  O181  1  0.030200  0.612200  0.898300  1.0  -0.6572
  O  O182  1  0.018900  0.492500  0.753700  1.0  -0.6045
  O  O183  1  0.702300  0.337200  0.043900  1.0  -0.6628
  O  O184  1  0.836700  0.505700  0.124100  1.0  -0.654
