# generated using pymatgen
data_Mn4H41C70(SO6)5
_symmetry_space_group_name_H-M   'P 1'
_cell_length_a   23.60400000
_cell_length_b   41.95400000
_cell_length_c   11.67500000
_cell_angle_alpha   90.00000000
_cell_angle_beta   116.90800000
_cell_angle_gamma   90.00000000
_symmetry_Int_Tables_number   1
_chemical_formula_structural   Mn4H41C70(SO6)5
_chemical_formula_sum   'Mn16 H164 C280 S20 O120'
_cell_volume   10309.82669096
_cell_formula_units_Z   4
loop_
 _symmetry_equiv_pos_site_id
 _symmetry_equiv_pos_as_xyz
  1  'x, y, z'
loop_
 _atom_site_type_symbol
 _atom_site_label
 _atom_site_symmetry_multiplicity
 _atom_site_fract_x
 _atom_site_fract_y
 _atom_site_fract_z
 _atom_site_occupancy
 _atom_site_charge
  Mn  Mn1  1  0.822810  0.122880  0.513200  1.0  1.1433
  Mn  Mn2  1  0.910770  0.149290  0.832680  1.0  1.175
  Mn  Mn3  1  0.821580  0.171620  0.014430  1.0  1.1192
  Mn  Mn4  1  0.731490  0.146060  0.186110  1.0  1.1755
  Mn  Mn5  1  0.322810  0.622880  0.513200  1.0  1.1433
  Mn  Mn6  1  0.410770  0.649290  0.832680  1.0  1.175
  Mn  Mn7  1  0.321580  0.671620  0.014430  1.0  1.1192
  Mn  Mn8  1  0.231490  0.646060  0.186110  1.0  1.1755
  Mn  Mn9  1  0.822810  0.877120  0.013200  1.0  1.1436
  Mn  Mn10  1  0.910770  0.850710  0.332680  1.0  1.1745
  Mn  Mn11  1  0.821580  0.828380  0.514430  1.0  1.1202
  Mn  Mn12  1  0.731490  0.853940  0.686110  1.0  1.176
  Mn  Mn13  1  0.322810  0.377120  0.013200  1.0  1.1436
  Mn  Mn14  1  0.410770  0.350710  0.332680  1.0  1.1745
  Mn  Mn15  1  0.321580  0.328380  0.514430  1.0  1.1202
  Mn  Mn16  1  0.231490  0.353940  0.686110  1.0  1.176
  H  H17  1  0.219100  0.204000  0.134000  1.0  0.3685
  H  H18  1  0.910500  0.233200  0.299800  1.0  0.128
  H  H19  1  0.882600  0.195200  0.404400  1.0  0.1111
  H  H20  1  0.040700  0.211700  0.729500  1.0  0.1208
  H  H21  1  0.065600  0.252300  0.627200  1.0  0.1145
  H  H22  1  0.023300  0.224800  0.036100  1.0  0.1308
  H  H23  1  0.973100  0.247800  0.143900  1.0  0.1087
  H  H24  1  0.137500  0.268600  0.446600  1.0  0.1233
  H  H25  1  0.189800  0.246000  0.337500  1.0  0.1034
  H  H26  1  0.070100  0.009300  0.982900  1.0  0.1278
  H  H27  1  0.016800  0.056000  0.950700  1.0  0.1203
  H  H28  1  0.993500  0.995300  0.604400  1.0  0.1366
  H  H29  1  0.941300  0.042100  0.572700  1.0  0.0968
  H  H30  1  0.946000  0.900200  0.962400  1.0  0.1139
  H  H31  1  0.032400  0.931600  0.987000  1.0  0.1286
  H  H32  1  0.971300  0.930600  0.605800  1.0  0.14
  H  H33  1  0.885700  0.899800  0.581600  1.0  0.1008
  H  H34  1  0.674700  0.068800  0.917500  1.0  0.1085
  H  H35  1  0.763000  0.098600  0.946800  1.0  0.1299
  H  H36  1  0.695600  0.102700  0.562900  1.0  0.1153
  H  H37  1  0.610900  0.071100  0.536600  1.0  0.1312
  H  H38  1  0.627800  0.942700  0.584000  1.0  0.1155
  H  H39  1  0.573100  0.991300  0.547400  1.0  0.1202
  H  H40  1  0.651900  0.006900  0.928900  1.0  0.1123
  H  H41  1  0.705300  0.958200  0.965000  1.0  0.1165
  H  H42  1  0.475600  0.209000  0.279600  1.0  0.1379
  H  H43  1  0.440400  0.259300  0.279500  1.0  0.0932
  H  H44  1  0.319900  0.228600  0.410700  1.0  0.1238
  H  H45  1  0.355400  0.176400  0.408400  1.0  0.1209
  H  H46  1  0.559500  0.133000  0.819500  1.0  0.1117
  H  H47  1  0.472500  0.128700  0.613600  1.0  0.133
  H  H48  1  0.581000  0.172000  0.473400  1.0  0.145
  H  H49  1  0.659500  0.177000  0.679100  1.0  0.0961
  H  H50  1  0.580000  0.339700  0.058300  1.0  0.1213
  H  H51  1  0.489300  0.333000  0.867700  1.0  0.1056
  H  H52  1  0.588300  0.356400  0.676900  1.0  0.1254
  H  H53  1  0.677900  0.361000  0.869400  1.0  0.127
  H  H54  1  0.701000  0.245500  0.255600  1.0  0.1313
  H  H55  1  0.675500  0.299800  0.237200  1.0  0.1176
  H  H56  1  0.792100  0.315300  0.082200  1.0  0.1159
  H  H57  1  0.819600  0.262900  0.103900  1.0  0.1215
  H  H58  1  0.719100  0.704000  0.134000  1.0  0.3685
  H  H59  1  0.410500  0.733200  0.299800  1.0  0.128
  H  H60  1  0.382600  0.695200  0.404400  1.0  0.1111
  H  H61  1  0.540700  0.711700  0.729500  1.0  0.1208
  H  H62  1  0.565600  0.752300  0.627200  1.0  0.1145
  H  H63  1  0.523300  0.724800  0.036100  1.0  0.1308
  H  H64  1  0.473100  0.747800  0.143900  1.0  0.1087
  H  H65  1  0.637500  0.768600  0.446600  1.0  0.1232
  H  H66  1  0.689800  0.746000  0.337500  1.0  0.1034
  H  H67  1  0.570100  0.509300  0.982900  1.0  0.1278
  H  H68  1  0.516800  0.556000  0.950700  1.0  0.1203
  H  H69  1  0.493500  0.495300  0.604400  1.0  0.1366
  H  H70  1  0.441300  0.542100  0.572700  1.0  0.0968
  H  H71  1  0.446000  0.400200  0.962400  1.0  0.1139
  H  H72  1  0.532400  0.431600  0.987000  1.0  0.1286
  H  H73  1  0.471300  0.430600  0.605800  1.0  0.14
  H  H74  1  0.385700  0.399800  0.581600  1.0  0.1008
  H  H75  1  0.174700  0.568800  0.917500  1.0  0.1085
  H  H76  1  0.263000  0.598600  0.946800  1.0  0.1299
  H  H77  1  0.195600  0.602700  0.562900  1.0  0.1153
  H  H78  1  0.110900  0.571100  0.536600  1.0  0.1312
  H  H79  1  0.127800  0.442700  0.584000  1.0  0.1155
  H  H80  1  0.073100  0.491300  0.547400  1.0  0.1202
  H  H81  1  0.151900  0.506900  0.928900  1.0  0.1123
  H  H82  1  0.205300  0.458200  0.965000  1.0  0.1165
  H  H83  1  0.975600  0.709000  0.279600  1.0  0.1379
  H  H84  1  0.940400  0.759300  0.279500  1.0  0.0932
  H  H85  1  0.819900  0.728600  0.410700  1.0  0.1238
  H  H86  1  0.855400  0.676400  0.408400  1.0  0.1209
  H  H87  1  0.059500  0.633000  0.819500  1.0  0.1117
  H  H88  1  0.972500  0.628700  0.613600  1.0  0.133
  H  H89  1  0.081000  0.672000  0.473400  1.0  0.1449
  H  H90  1  0.159500  0.677000  0.679100  1.0  0.0963
  H  H91  1  0.080000  0.839700  0.058300  1.0  0.1213
  H  H92  1  0.989300  0.833000  0.867700  1.0  0.1056
  H  H93  1  0.088300  0.856400  0.676900  1.0  0.1254
  H  H94  1  0.177900  0.861000  0.869400  1.0  0.127
  H  H95  1  0.201000  0.745500  0.255600  1.0  0.1313
  H  H96  1  0.175500  0.799800  0.237200  1.0  0.1176
  H  H97  1  0.292100  0.815300  0.082200  1.0  0.1159
  H  H98  1  0.319600  0.762900  0.103900  1.0  0.1215
  H  H99  1  0.219100  0.796000  0.634000  1.0  0.3683
  H  H100  1  0.910500  0.766800  0.799800  1.0  0.1274
  H  H101  1  0.882600  0.804800  0.904400  1.0  0.1111
  H  H102  1  0.040700  0.788300  0.229500  1.0  0.1206
  H  H103  1  0.065600  0.747700  0.127200  1.0  0.1147
  H  H104  1  0.023300  0.775200  0.536100  1.0  0.1308
  H  H105  1  0.973100  0.752200  0.643900  1.0  0.1084
  H  H106  1  0.137500  0.731400  0.946600  1.0  0.1234
  H  H107  1  0.189800  0.754000  0.837500  1.0  0.1033
  H  H108  1  0.070100  0.990700  0.482900  1.0  0.1277
  H  H109  1  0.016800  0.944000  0.450700  1.0  0.1203
  H  H110  1  0.993500  0.004700  0.104400  1.0  0.1361
  H  H111  1  0.941300  0.957900  0.072700  1.0  0.0967
  H  H112  1  0.946000  0.099800  0.462400  1.0  0.114
  H  H113  1  0.032400  0.068400  0.487000  1.0  0.1289
  H  H114  1  0.971300  0.069400  0.105800  1.0  0.1401
  H  H115  1  0.885700  0.100200  0.081600  1.0  0.1006
  H  H116  1  0.674700  0.931200  0.417500  1.0  0.1084
  H  H117  1  0.763000  0.901400  0.446800  1.0  0.1303
  H  H118  1  0.695600  0.897300  0.062900  1.0  0.1153
  H  H119  1  0.610900  0.928900  0.036600  1.0  0.1314
  H  H120  1  0.627800  0.057300  0.084000  1.0  0.1157
  H  H121  1  0.573100  0.008700  0.047400  1.0  0.1206
  H  H122  1  0.651900  0.993100  0.428900  1.0  0.1126
  H  H123  1  0.705300  0.041800  0.465000  1.0  0.1165
  H  H124  1  0.475600  0.791000  0.779600  1.0  0.1376
  H  H125  1  0.440400  0.740700  0.779500  1.0  0.0931
  H  H126  1  0.319900  0.771400  0.910700  1.0  0.1237
  H  H127  1  0.355400  0.823600  0.908400  1.0  0.1214
  H  H128  1  0.559500  0.867000  0.319500  1.0  0.1111
  H  H129  1  0.472500  0.871300  0.113600  1.0  0.1331
  H  H130  1  0.581000  0.828000  0.973400  1.0  0.1448
  H  H131  1  0.659500  0.823000  0.179100  1.0  0.0961
  H  H132  1  0.580000  0.660300  0.558300  1.0  0.1214
  H  H133  1  0.489300  0.667000  0.367700  1.0  0.1057
  H  H134  1  0.588300  0.643600  0.176900  1.0  0.125
  H  H135  1  0.677900  0.639000  0.369400  1.0  0.1266
  H  H136  1  0.701000  0.754500  0.755600  1.0  0.1309
  H  H137  1  0.675500  0.700200  0.737200  1.0  0.1176
  H  H138  1  0.792100  0.684700  0.582200  1.0  0.1162
  H  H139  1  0.819600  0.737100  0.603900  1.0  0.1214
  H  H140  1  0.719100  0.296000  0.634000  1.0  0.3683
  H  H141  1  0.410500  0.266800  0.799800  1.0  0.1274
  H  H142  1  0.382600  0.304800  0.904400  1.0  0.1111
  H  H143  1  0.540700  0.288300  0.229500  1.0  0.1206
  H  H144  1  0.565600  0.247700  0.127200  1.0  0.1147
  H  H145  1  0.523300  0.275200  0.536100  1.0  0.1308
  H  H146  1  0.473100  0.252200  0.643900  1.0  0.1084
  H  H147  1  0.637500  0.231400  0.946600  1.0  0.1234
  H  H148  1  0.689800  0.254000  0.837500  1.0  0.1033
  H  H149  1  0.570100  0.490700  0.482900  1.0  0.1277
  H  H150  1  0.516800  0.444000  0.450700  1.0  0.1203
  H  H151  1  0.493500  0.504700  0.104400  1.0  0.1361
  H  H152  1  0.441300  0.457900  0.072700  1.0  0.0967
  H  H153  1  0.446000  0.599800  0.462400  1.0  0.114
  H  H154  1  0.532400  0.568400  0.487000  1.0  0.1289
  H  H155  1  0.471300  0.569400  0.105800  1.0  0.1401
  H  H156  1  0.385700  0.600200  0.081600  1.0  0.1006
  H  H157  1  0.174700  0.431200  0.417500  1.0  0.1084
  H  H158  1  0.263000  0.401400  0.446800  1.0  0.1303
  H  H159  1  0.195600  0.397300  0.062900  1.0  0.1153
  H  H160  1  0.110900  0.428900  0.036600  1.0  0.1314
  H  H161  1  0.127800  0.557300  0.084000  1.0  0.1157
  H  H162  1  0.073100  0.508700  0.047400  1.0  0.1206
  H  H163  1  0.151900  0.493100  0.428900  1.0  0.1126
  H  H164  1  0.205300  0.541800  0.465000  1.0  0.1165
  H  H165  1  0.975600  0.291000  0.779600  1.0  0.1376
  H  H166  1  0.940400  0.240700  0.779500  1.0  0.0931
  H  H167  1  0.819900  0.271400  0.910700  1.0  0.1237
  H  H168  1  0.855400  0.323600  0.908400  1.0  0.1214
  H  H169  1  0.059500  0.367000  0.319500  1.0  0.1111
  H  H170  1  0.972500  0.371300  0.113600  1.0  0.1331
  H  H171  1  0.081000  0.328000  0.973400  1.0  0.1447
  H  H172  1  0.159500  0.323000  0.179100  1.0  0.0964
  H  H173  1  0.080000  0.160300  0.558300  1.0  0.1214
  H  H174  1  0.989300  0.167000  0.367700  1.0  0.1057
  H  H175  1  0.088300  0.143600  0.176900  1.0  0.125
  H  H176  1  0.177900  0.139000  0.369400  1.0  0.1266
  H  H177  1  0.201000  0.254500  0.755600  1.0  0.1309
  H  H178  1  0.175500  0.200200  0.737200  1.0  0.1176
  H  H179  1  0.292100  0.184700  0.582200  1.0  0.1162
  H  H180  1  0.319600  0.237100  0.603900  1.0  0.1214
  C  C181  1  0.934900  0.175640  0.636200  1.0  0.6496
  C  C182  1  0.144600  0.215000  0.107400  1.0  0.6451
  C  C183  1  0.935900  0.229600  0.386900  1.0  -0.1151
  C  C184  1  0.919800  0.206780  0.449600  1.0  -0.0713
  C  C185  1  0.957400  0.200140  0.579700  1.0  -0.1365
  C  C186  1  0.013400  0.216650  0.644400  1.0  -0.1073
  C  C187  1  0.028700  0.240490  0.582200  1.0  -0.0162
  C  C188  1  0.990000  0.247290  0.453300  1.0  -0.1666
  C  C189  1  0.046700  0.233600  0.117200  1.0  0.0116
  C  C190  1  0.017300  0.247300  0.181800  1.0  -0.0348
  C  C191  1  0.051300  0.260300  0.301600  1.0  -0.1015
  C  C192  1  0.115100  0.260100  0.364500  1.0  -0.056
  C  C193  1  0.145700  0.246400  0.298400  1.0  -0.0193
  C  C194  1  0.112000  0.233200  0.174800  1.0  -0.1471
  C  C195  1  0.850100  0.878150  0.751500  1.0  0.6861
  C  C196  1  0.933300  0.084920  0.732100  1.0  0.7186
  C  C197  1  0.043600  0.016120  0.899800  1.0  -0.0364
  C  C198  1  0.012000  0.043780  0.880400  1.0  -0.0337
  C  C199  1  0.971500  0.054630  0.755400  1.0  -0.1061
  C  C200  1  0.998000  0.007790  0.674000  1.0  -0.1291
  C  C201  1  0.036700  0.998230  0.798200  1.0  -0.1514
  C  C202  1  0.967100  0.035480  0.656400  1.0  -0.0024
  C  C203  1  0.950900  0.906480  0.890900  1.0  0.0037
  C  C204  1  0.002500  0.925050  0.905800  1.0  -0.055
  C  C205  1  0.008300  0.933510  0.799300  1.0  -0.1548
  C  C206  1  0.965800  0.924540  0.676700  1.0  -0.0954
  C  C207  1  0.915000  0.906240  0.663400  1.0  -0.0125
  C  C208  1  0.905800  0.897120  0.766400  1.0  -0.1491
  C  C209  1  0.470000  0.339990  0.624800  1.0  0.6904
  C  C210  1  0.795500  0.122930  0.775800  1.0  0.6765
  C  C211  1  0.713500  0.917270  0.803900  1.0  0.7308
  C  C212  1  0.679800  0.075180  0.846400  1.0  -0.0429
  C  C213  1  0.732400  0.093270  0.864600  1.0  -0.0837
  C  C214  1  0.738500  0.103370  0.755200  1.0  -0.121
  C  C215  1  0.692300  0.095390  0.634800  1.0  -0.0118
  C  C216  1  0.641200  0.076770  0.618600  1.0  -0.0162
  C  C217  1  0.635200  0.066590  0.726100  1.0  -0.1683
  C  C218  1  0.633400  0.955800  0.652600  1.0  -0.0313
  C  C219  1  0.600100  0.984830  0.630700  1.0  -0.0417
  C  C220  1  0.608200  0.003930  0.735500  1.0  -0.1872
  C  C221  1  0.647300  0.994220  0.859800  1.0  -0.0507
  C  C222  1  0.680100  0.965180  0.881500  1.0  -0.0329
  C  C223  1  0.674500  0.946900  0.777400  1.0  -0.1226
  C  C224  1  0.672400  0.157180  0.900000  1.0  0.663
  C  C225  1  0.358400  0.282970  0.353500  1.0  0.7447
  C  C226  1  0.444800  0.212960  0.306900  1.0  -0.0795
  C  C227  1  0.423300  0.242510  0.305900  1.0  -0.0178
  C  C228  1  0.375900  0.249090  0.343000  1.0  -0.1358
  C  C229  1  0.350800  0.224610  0.384000  1.0  -0.002
  C  C230  1  0.372900  0.193470  0.384500  1.0  -0.0305
  C  C231  1  0.420000  0.188500  0.349800  1.0  -0.1659
  C  C232  1  0.562800  0.141050  0.748500  1.0  0.0019
  C  C233  1  0.510200  0.138200  0.624800  1.0  -0.0634
  C  C234  1  0.517000  0.150050  0.523600  1.0  -0.202
  C  C235  1  0.575300  0.164400  0.542300  1.0  -0.0823
  C  C236  1  0.622000  0.166700  0.665000  1.0  -0.0249
  C  C237  1  0.617000  0.155090  0.765000  1.0  -0.0964
  C  C238  1  0.770300  0.212530  0.174000  1.0  0.6943
  C  C239  1  0.581300  0.342540  0.980500  1.0  -0.0335
  C  C240  1  0.527200  0.338680  0.866900  1.0  -0.0155
  C  C241  1  0.529000  0.343310  0.750300  1.0  -0.0888
  C  C242  1  0.586200  0.352400  0.753200  1.0  -0.0217
  C  C243  1  0.639400  0.355400  0.868000  1.0  -0.0214
  C  C244  1  0.636500  0.350450  0.978900  1.0  -0.0984
  C  C245  1  0.730000  0.312430  0.154600  1.0  -0.1175
  C  C246  1  0.718300  0.259370  0.217800  1.0  -0.0168
  C  C247  1  0.703400  0.292090  0.207600  1.0  -0.0399
  C  C248  1  0.773200  0.301220  0.116100  1.0  -0.051
  C  C249  1  0.788700  0.269970  0.126600  1.0  -0.0854
  C  C250  1  0.758200  0.248250  0.171800  1.0  -0.1182
  C  C251  1  0.434900  0.675640  0.636200  1.0  0.6496
  C  C252  1  0.644600  0.715000  0.107400  1.0  0.6451
  C  C253  1  0.435900  0.729600  0.386900  1.0  -0.1151
  C  C254  1  0.419800  0.706780  0.449600  1.0  -0.0713
  C  C255  1  0.457400  0.700140  0.579700  1.0  -0.1365
  C  C256  1  0.513400  0.716650  0.644400  1.0  -0.1073
  C  C257  1  0.528700  0.740490  0.582200  1.0  -0.0162
  C  C258  1  0.490000  0.747290  0.453300  1.0  -0.1666
  C  C259  1  0.546700  0.733600  0.117200  1.0  0.0117
  C  C260  1  0.517300  0.747300  0.181800  1.0  -0.0348
  C  C261  1  0.551300  0.760300  0.301600  1.0  -0.1015
  C  C262  1  0.615100  0.760100  0.364500  1.0  -0.056
  C  C263  1  0.645700  0.746400  0.298400  1.0  -0.0193
  C  C264  1  0.612000  0.733200  0.174800  1.0  -0.1472
  C  C265  1  0.350100  0.378150  0.751500  1.0  0.6861
  C  C266  1  0.433300  0.584920  0.732100  1.0  0.7186
  C  C267  1  0.543600  0.516120  0.899800  1.0  -0.0364
  C  C268  1  0.512000  0.543780  0.880400  1.0  -0.0337
  C  C269  1  0.471500  0.554630  0.755400  1.0  -0.1061
  C  C270  1  0.498000  0.507790  0.674000  1.0  -0.1291
  C  C271  1  0.536700  0.498230  0.798200  1.0  -0.1514
  C  C272  1  0.467100  0.535480  0.656400  1.0  -0.0024
  C  C273  1  0.450900  0.406480  0.890900  1.0  0.0037
  C  C274  1  0.502500  0.425050  0.905800  1.0  -0.055
  C  C275  1  0.508300  0.433510  0.799300  1.0  -0.1548
  C  C276  1  0.465800  0.424540  0.676700  1.0  -0.0954
  C  C277  1  0.415000  0.406240  0.663400  1.0  -0.0125
  C  C278  1  0.405800  0.397120  0.766400  1.0  -0.1491
  C  C279  1  0.970000  0.839990  0.624800  1.0  0.6904
  C  C280  1  0.295500  0.622930  0.775800  1.0  0.6765
  C  C281  1  0.213500  0.417270  0.803900  1.0  0.7308
  C  C282  1  0.179800  0.575180  0.846400  1.0  -0.0429
  C  C283  1  0.232400  0.593270  0.864600  1.0  -0.0837
  C  C284  1  0.238500  0.603370  0.755200  1.0  -0.121
  C  C285  1  0.192300  0.595390  0.634800  1.0  -0.0122
  C  C286  1  0.141200  0.576770  0.618600  1.0  -0.0162
  C  C287  1  0.135200  0.566590  0.726100  1.0  -0.1683
  C  C288  1  0.133400  0.455800  0.652600  1.0  -0.0313
  C  C289  1  0.100100  0.484830  0.630700  1.0  -0.0417
  C  C290  1  0.108200  0.503930  0.735500  1.0  -0.1872
  C  C291  1  0.147300  0.494220  0.859800  1.0  -0.0507
  C  C292  1  0.180100  0.465180  0.881500  1.0  -0.0329
  C  C293  1  0.174500  0.446900  0.777400  1.0  -0.1226
  C  C294  1  0.172400  0.657180  0.900000  1.0  0.663
  C  C295  1  0.858400  0.782970  0.353500  1.0  0.7447
  C  C296  1  0.944800  0.712960  0.306900  1.0  -0.0795
  C  C297  1  0.923300  0.742510  0.305900  1.0  -0.0178
  C  C298  1  0.875900  0.749090  0.343000  1.0  -0.1358
  C  C299  1  0.850800  0.724610  0.384000  1.0  -0.002
  C  C300  1  0.872900  0.693470  0.384500  1.0  -0.0305
  C  C301  1  0.920000  0.688500  0.349800  1.0  -0.1659
  C  C302  1  0.062800  0.641050  0.748500  1.0  0.0019
  C  C303  1  0.010200  0.638200  0.624800  1.0  -0.0634
  C  C304  1  0.017000  0.650050  0.523600  1.0  -0.1973
  C  C305  1  0.075300  0.664400  0.542300  1.0  -0.0824
  C  C306  1  0.122000  0.666667  0.665000  1.0  -0.025
  C  C307  1  0.117000  0.655090  0.765000  1.0  -0.0957
  C  C308  1  0.270300  0.712530  0.174000  1.0  0.6943
  C  C309  1  0.081300  0.842540  0.980500  1.0  -0.0335
  C  C310  1  0.027200  0.838680  0.866900  1.0  -0.0155
  C  C311  1  0.029000  0.843310  0.750300  1.0  -0.0888
  C  C312  1  0.086200  0.852400  0.753200  1.0  -0.0217
  C  C313  1  0.139400  0.855400  0.868000  1.0  -0.0214
  C  C314  1  0.136500  0.850450  0.978900  1.0  -0.0984
  C  C315  1  0.230000  0.812430  0.154600  1.0  -0.1175
  C  C316  1  0.218300  0.759370  0.217800  1.0  -0.0168
  C  C317  1  0.203400  0.792090  0.207600  1.0  -0.0399
  C  C318  1  0.273200  0.801220  0.116100  1.0  -0.051
  C  C319  1  0.288700  0.769970  0.126600  1.0  -0.0854
  C  C320  1  0.258200  0.748250  0.171800  1.0  -0.1182
  C  C321  1  0.934900  0.824360  0.136200  1.0  0.6496
  C  C322  1  0.144600  0.785000  0.607400  1.0  0.6453
  C  C323  1  0.935900  0.770400  0.886900  1.0  -0.1155
  C  C324  1  0.919800  0.793220  0.949600  1.0  -0.0716
  C  C325  1  0.957400  0.799860  0.079700  1.0  -0.1368
  C  C326  1  0.013400  0.783350  0.144400  1.0  -0.1072
  C  C327  1  0.028700  0.759510  0.082200  1.0  -0.0151
  C  C328  1  0.990000  0.752710  0.953300  1.0  -0.1692
  C  C329  1  0.046700  0.766400  0.617200  1.0  0.0115
  C  C330  1  0.017300  0.752700  0.681800  1.0  -0.0348
  C  C331  1  0.051300  0.739700  0.801600  1.0  -0.1012
  C  C332  1  0.115100  0.739900  0.864500  1.0  -0.056
  C  C333  1  0.145700  0.753600  0.798400  1.0  -0.0191
  C  C334  1  0.112000  0.766800  0.674800  1.0  -0.1471
  C  C335  1  0.850100  0.121850  0.251500  1.0  0.6861
  C  C336  1  0.933300  0.915080  0.232100  1.0  0.7184
  C  C337  1  0.043600  0.983880  0.399800  1.0  -0.0359
  C  C338  1  0.012000  0.956220  0.380400  1.0  -0.0339
  C  C339  1  0.971500  0.945370  0.255400  1.0  -0.1068
  C  C340  1  0.998000  0.992210  0.174000  1.0  -0.1289
  C  C341  1  0.036700  0.001770  0.298200  1.0  -0.1529
  C  C342  1  0.967100  0.964520  0.156400  1.0  -0.0027
  C  C343  1  0.950900  0.093520  0.390900  1.0  0.0027
  C  C344  1  0.002500  0.074950  0.405800  1.0  -0.0547
  C  C345  1  0.008300  0.066490  0.299300  1.0  -0.1552
  C  C346  1  0.965800  0.075460  0.176700  1.0  -0.0954
  C  C347  1  0.915000  0.093760  0.163400  1.0  -0.0119
  C  C348  1  0.905800  0.102880  0.266400  1.0  -0.1493
  C  C349  1  0.470000  0.660010  0.124800  1.0  0.6903
  C  C350  1  0.795500  0.877070  0.275800  1.0  0.6765
  C  C351  1  0.713500  0.082730  0.303900  1.0  0.7311
  C  C352  1  0.679800  0.924820  0.346400  1.0  -0.0414
  C  C353  1  0.732400  0.906730  0.364600  1.0  -0.0832
  C  C354  1  0.738500  0.896630  0.255200  1.0  -0.1209
  C  C355  1  0.692300  0.904610  0.134800  1.0  -0.0115
  C  C356  1  0.641200  0.923230  0.118600  1.0  -0.017
  C  C357  1  0.635200  0.933410  0.226100  1.0  -0.1676
  C  C358  1  0.633400  0.044200  0.152600  1.0  -0.0317
  C  C359  1  0.600100  0.015170  0.130700  1.0  -0.0422
  C  C360  1  0.608200  0.996070  0.235500  1.0  -0.1869
  C  C361  1  0.647300  0.005780  0.359800  1.0  -0.0518
  C  C362  1  0.680100  0.034820  0.381500  1.0  -0.0328
  C  C363  1  0.674500  0.053100  0.277400  1.0  -0.1223
  C  C364  1  0.672400  0.842820  0.400000  1.0  0.663
  C  C365  1  0.358400  0.717030  0.853500  1.0  0.7443
  C  C366  1  0.444800  0.787040  0.806900  1.0  -0.078
  C  C367  1  0.423300  0.757490  0.805900  1.0  -0.0191
  C  C368  1  0.375900  0.750910  0.843000  1.0  -0.1369
  C  C369  1  0.350800  0.775390  0.884000  1.0  -0.0011
  C  C370  1  0.372900  0.806530  0.884500  1.0  -0.032
  C  C371  1  0.420000  0.811500  0.849800  1.0  -0.167
  C  C372  1  0.562800  0.858950  0.248500  1.0  0.0019
  C  C373  1  0.510200  0.861800  0.124800  1.0  -0.0644
  C  C374  1  0.517000  0.849950  0.023600  1.0  -0.2013
  C  C375  1  0.575300  0.835600  0.042300  1.0  -0.0818
  C  C376  1  0.622000  0.833300  0.165000  1.0  -0.0244
  C  C377  1  0.617000  0.844910  0.265000  1.0  -0.0967
  C  C378  1  0.770300  0.787470  0.674000  1.0  0.694
  C  C379  1  0.581300  0.657460  0.480500  1.0  -0.034
  C  C380  1  0.527200  0.661320  0.366900  1.0  -0.0152
  C  C381  1  0.529000  0.656690  0.250300  1.0  -0.0897
  C  C382  1  0.586200  0.647600  0.253200  1.0  -0.021
  C  C383  1  0.639400  0.644600  0.368000  1.0  -0.0227
  C  C384  1  0.636500  0.649550  0.478900  1.0  -0.098
  C  C385  1  0.730000  0.687570  0.654600  1.0  -0.1165
  C  C386  1  0.718300  0.740630  0.717800  1.0  -0.0166
  C  C387  1  0.703400  0.707910  0.707600  1.0  -0.0399
  C  C388  1  0.773200  0.698780  0.616100  1.0  -0.0518
  C  C389  1  0.788700  0.730030  0.626600  1.0  -0.0857
  C  C390  1  0.758200  0.751750  0.671800  1.0  -0.1182
  C  C391  1  0.434900  0.324360  0.136200  1.0  0.6496
  C  C392  1  0.644600  0.285000  0.607400  1.0  0.6453
  C  C393  1  0.435900  0.270400  0.886900  1.0  -0.1155
  C  C394  1  0.419800  0.293220  0.949600  1.0  -0.0716
  C  C395  1  0.457400  0.299860  0.079700  1.0  -0.1368
  C  C396  1  0.513400  0.283350  0.144400  1.0  -0.1072
  C  C397  1  0.528700  0.259510  0.082200  1.0  -0.0151
  C  C398  1  0.490000  0.252710  0.953300  1.0  -0.1692
  C  C399  1  0.546700  0.266400  0.617200  1.0  0.0116
  C  C400  1  0.517300  0.252700  0.681800  1.0  -0.0348
  C  C401  1  0.551300  0.239700  0.801600  1.0  -0.1013
  C  C402  1  0.615100  0.239900  0.864500  1.0  -0.0559
  C  C403  1  0.645700  0.253600  0.798400  1.0  -0.0191
  C  C404  1  0.612000  0.266800  0.674800  1.0  -0.1472
  C  C405  1  0.350100  0.621850  0.251500  1.0  0.6861
  C  C406  1  0.433300  0.415080  0.232100  1.0  0.7184
  C  C407  1  0.543600  0.483880  0.399800  1.0  -0.0359
  C  C408  1  0.512000  0.456220  0.380400  1.0  -0.0339
  C  C409  1  0.471500  0.445370  0.255400  1.0  -0.1068
  C  C410  1  0.498000  0.492210  0.174000  1.0  -0.1289
  C  C411  1  0.536700  0.501770  0.298200  1.0  -0.1529
  C  C412  1  0.467100  0.464520  0.156400  1.0  -0.0027
  C  C413  1  0.450900  0.593520  0.390900  1.0  0.0027
  C  C414  1  0.502500  0.574950  0.405800  1.0  -0.0547
  C  C415  1  0.508300  0.566490  0.299300  1.0  -0.1552
  C  C416  1  0.465800  0.575460  0.176700  1.0  -0.0954
  C  C417  1  0.415000  0.593760  0.163400  1.0  -0.0119
  C  C418  1  0.405800  0.602880  0.266400  1.0  -0.1493
  C  C419  1  0.970000  0.160010  0.124800  1.0  0.6903
  C  C420  1  0.295500  0.377070  0.275800  1.0  0.6765
  C  C421  1  0.213500  0.582730  0.303900  1.0  0.7311
  C  C422  1  0.179800  0.424820  0.346400  1.0  -0.0414
  C  C423  1  0.232400  0.406730  0.364600  1.0  -0.0832
  C  C424  1  0.238500  0.396630  0.255200  1.0  -0.1209
  C  C425  1  0.192300  0.404610  0.134800  1.0  -0.0119
  C  C426  1  0.141200  0.423230  0.118600  1.0  -0.017
  C  C427  1  0.135200  0.433410  0.226100  1.0  -0.1676
  C  C428  1  0.133400  0.544200  0.152600  1.0  -0.0317
  C  C429  1  0.100100  0.515170  0.130700  1.0  -0.0422
  C  C430  1  0.108200  0.496070  0.235500  1.0  -0.1869
  C  C431  1  0.147300  0.505780  0.359800  1.0  -0.0518
  C  C432  1  0.180100  0.534820  0.381500  1.0  -0.0328
  C  C433  1  0.174500  0.553100  0.277400  1.0  -0.1223
  C  C434  1  0.172400  0.342820  0.400000  1.0  0.663
  C  C435  1  0.858400  0.217030  0.853500  1.0  0.7443
  C  C436  1  0.944800  0.287040  0.806900  1.0  -0.078
  C  C437  1  0.923300  0.257490  0.805900  1.0  -0.0191
  C  C438  1  0.875900  0.250910  0.843000  1.0  -0.1369
  C  C439  1  0.850800  0.275390  0.884000  1.0  -0.0011
  C  C440  1  0.872900  0.306530  0.884500  1.0  -0.032
  C  C441  1  0.920000  0.311500  0.849800  1.0  -0.167
  C  C442  1  0.062800  0.358950  0.248500  1.0  0.0019
  C  C443  1  0.010200  0.361800  0.124800  1.0  -0.0644
  C  C444  1  0.017000  0.349950  0.023600  1.0  -0.1964
  C  C445  1  0.075300  0.335600  0.042300  1.0  -0.0819
  C  C446  1  0.122000  0.333333  0.165000  1.0  -0.0247
  C  C447  1  0.117000  0.344910  0.265000  1.0  -0.0959
  C  C448  1  0.270300  0.287470  0.674000  1.0  0.694
  C  C449  1  0.081300  0.157460  0.480500  1.0  -0.034
  C  C450  1  0.027200  0.161320  0.366900  1.0  -0.0152
  C  C451  1  0.029000  0.156690  0.250300  1.0  -0.0897
  C  C452  1  0.086200  0.147600  0.253200  1.0  -0.021
  C  C453  1  0.139400  0.144600  0.368000  1.0  -0.0227
  C  C454  1  0.136500  0.149550  0.478900  1.0  -0.098
  C  C455  1  0.230000  0.187570  0.654600  1.0  -0.1165
  C  C456  1  0.218300  0.240630  0.717800  1.0  -0.0166
  C  C457  1  0.203400  0.207910  0.707600  1.0  -0.0399
  C  C458  1  0.273200  0.198780  0.616100  1.0  -0.0518
  C  C459  1  0.288700  0.230030  0.626600  1.0  -0.0857
  C  C460  1  0.258200  0.251750  0.671800  1.0  -0.1182
  S  S461  1  0.008000  0.278820  0.375400  1.0  1.1231
  S  S462  1  0.072600  0.959470  0.820100  1.0  1.1203
  S  S463  1  0.572700  0.041460  0.710010  1.0  1.0865
  S  S464  1  0.452950  0.149490  0.368300  1.0  1.0638
  S  S465  1  0.705890  0.352540  0.129900  1.0  0.9767
  S  S466  1  0.508000  0.778820  0.375400  1.0  1.1231
  S  S467  1  0.572600  0.459470  0.820100  1.0  1.1203
  S  S468  1  0.072700  0.541460  0.710010  1.0  1.0865
  S  S469  1  0.952950  0.649490  0.368300  1.0  1.0638
  S  S470  1  0.205890  0.852540  0.129900  1.0  0.9767
  S  S471  1  0.008000  0.721180  0.875400  1.0  1.1145
  S  S472  1  0.072600  0.040530  0.320100  1.0  1.1214
  S  S473  1  0.572700  0.958540  0.210010  1.0  1.0864
  S  S474  1  0.452950  0.850510  0.868300  1.0  1.063
  S  S475  1  0.705890  0.647460  0.629900  1.0  0.9631
  S  S476  1  0.508000  0.221180  0.875400  1.0  1.1144
  S  S477  1  0.572600  0.540530  0.320100  1.0  1.1214
  S  S478  1  0.072700  0.458540  0.210010  1.0  1.0864
  S  S479  1  0.952950  0.350510  0.868300  1.0  1.063
  S  S480  1  0.205890  0.147460  0.629900  1.0  0.9631
  O  O481  1  0.884300  0.163150  0.583800  1.0  -0.6529
  O  O482  1  0.972800  0.168300  0.758900  1.0  -0.592
  O  O483  1  0.896800  0.090820  0.614400  1.0  -0.6083
  O  O484  1  0.939700  0.101520  0.824600  1.0  -0.5836
  O  O485  1  0.805400  0.128240  0.680100  1.0  -0.7015
  O  O486  1  0.831950  0.133490  0.885100  1.0  -0.6502
  O  O487  1  0.723100  0.169460  0.906500  1.0  -0.621
  O  O488  1  0.666000  0.145800  0.992300  1.0  -0.5969
  O  O489  1  0.813100  0.203950  0.147300  1.0  -0.5943
  O  O490  1  0.736100  0.195120  0.200400  1.0  -0.5807
  O  O491  1  0.119400  0.209900  0.996500  1.0  -0.4587
  O  O492  1  0.203100  0.213100  0.174700  1.0  -0.5084
  O  O493  1  0.838600  0.872860  0.843300  1.0  -0.6925
  O  O494  1  0.811300  0.868200  0.638200  1.0  -0.686
  O  O495  1  0.702100  0.899700  0.707500  1.0  -0.6287
  O  O496  1  0.754300  0.912640  0.916900  1.0  -0.5939
  O  O497  1  0.372200  0.303640  0.296300  1.0  -0.6036
  O  O498  1  0.326300  0.287650  0.411700  1.0  -0.5831
  O  O499  1  0.475800  0.345930  0.525500  1.0  -0.6
  O  O500  1  0.421100  0.331110  0.630900  1.0  -0.587
  O  O501  1  0.948900  0.291290  0.277400  1.0  -0.6038
  O  O502  1  0.052800  0.299840  0.475300  1.0  -0.5682
  O  O503  1  0.121100  0.957410  0.949300  1.0  -0.4982
  O  O504  1  0.088600  0.954160  0.715300  1.0  -0.5846
  O  O505  1  0.557600  0.048000  0.813300  1.0  -0.5259
  O  O506  1  0.523400  0.043260  0.578800  1.0  -0.5667
  O  O507  1  0.407200  0.127130  0.369100  1.0  -0.4955
  O  O508  1  0.477100  0.147000  0.273000  1.0  -0.5654
  O  O509  1  0.755800  0.370830  0.110100  1.0  -0.5522
  O  O510  1  0.687100  0.362140  0.225600  1.0  -0.5336
  O  O511  1  0.384300  0.663150  0.583800  1.0  -0.6529
  O  O512  1  0.472800  0.668300  0.758900  1.0  -0.592
  O  O513  1  0.396800  0.590820  0.614400  1.0  -0.6083
  O  O514  1  0.439700  0.601520  0.824600  1.0  -0.5836
  O  O515  1  0.305400  0.628240  0.680100  1.0  -0.7015
  O  O516  1  0.331950  0.633490  0.885100  1.0  -0.6502
  O  O517  1  0.223100  0.669460  0.906500  1.0  -0.621
  O  O518  1  0.166000  0.645800  0.992300  1.0  -0.5969
  O  O519  1  0.313100  0.703950  0.147300  1.0  -0.5943
  O  O520  1  0.236100  0.695120  0.200400  1.0  -0.5807
  O  O521  1  0.619400  0.709900  0.996500  1.0  -0.4587
  O  O522  1  0.703100  0.713100  0.174700  1.0  -0.5084
  O  O523  1  0.338600  0.372860  0.843300  1.0  -0.6925
  O  O524  1  0.311300  0.368200  0.638200  1.0  -0.686
  O  O525  1  0.202100  0.399700  0.707500  1.0  -0.6287
  O  O526  1  0.254300  0.412640  0.916900  1.0  -0.5939
  O  O527  1  0.872200  0.803640  0.296300  1.0  -0.6036
  O  O528  1  0.826300  0.787650  0.411700  1.0  -0.5831
  O  O529  1  0.975800  0.845930  0.525500  1.0  -0.6
  O  O530  1  0.921100  0.831110  0.630900  1.0  -0.587
  O  O531  1  0.448900  0.791290  0.277400  1.0  -0.6038
  O  O532  1  0.552800  0.799840  0.475300  1.0  -0.5682
  O  O533  1  0.621100  0.457410  0.949300  1.0  -0.4982
  O  O534  1  0.588600  0.454160  0.715300  1.0  -0.5846
  O  O535  1  0.057600  0.548000  0.813300  1.0  -0.5259
  O  O536  1  0.023400  0.543260  0.578800  1.0  -0.5667
  O  O537  1  0.907200  0.627130  0.369100  1.0  -0.4955
  O  O538  1  0.977100  0.647000  0.273000  1.0  -0.5654
  O  O539  1  0.255800  0.870830  0.110100  1.0  -0.5522
  O  O540  1  0.187100  0.862140  0.225600  1.0  -0.5336
  O  O541  1  0.884300  0.836850  0.083800  1.0  -0.6526
  O  O542  1  0.972800  0.831700  0.258900  1.0  -0.5917
  O  O543  1  0.896800  0.909180  0.114400  1.0  -0.6082
  O  O544  1  0.939700  0.898480  0.324600  1.0  -0.5838
  O  O545  1  0.805400  0.871760  0.180100  1.0  -0.7022
  O  O546  1  0.831950  0.866510  0.385100  1.0  -0.6503
  O  O547  1  0.723100  0.830540  0.406500  1.0  -0.6204
  O  O548  1  0.666000  0.854200  0.492300  1.0  -0.5969
  O  O549  1  0.813100  0.796050  0.647300  1.0  -0.5945
  O  O550  1  0.736100  0.804880  0.700400  1.0  -0.581
  O  O551  1  0.119400  0.790100  0.496500  1.0  -0.4582
  O  O552  1  0.203100  0.786900  0.674700  1.0  -0.5079
  O  O553  1  0.838600  0.127140  0.343300  1.0  -0.6921
  O  O554  1  0.811300  0.131800  0.138200  1.0  -0.6854
  O  O555  1  0.702100  0.100300  0.207500  1.0  -0.6281
  O  O556  1  0.754300  0.087360  0.416900  1.0  -0.5942
  O  O557  1  0.372200  0.696360  0.796300  1.0  -0.6032
  O  O558  1  0.326300  0.712350  0.911700  1.0  -0.5832
  O  O559  1  0.475800  0.654070  0.025500  1.0  -0.5998
  O  O560  1  0.421100  0.668890  0.130900  1.0  -0.5865
  O  O561  1  0.948900  0.708710  0.777400  1.0  -0.6051
  O  O562  1  0.052800  0.700160  0.975300  1.0  -0.5689
  O  O563  1  0.121100  0.042590  0.449300  1.0  -0.4972
  O  O564  1  0.088600  0.045840  0.215300  1.0  -0.5847
  O  O565  1  0.557600  0.952000  0.313300  1.0  -0.5258
  O  O566  1  0.523400  0.956740  0.078800  1.0  -0.5676
  O  O567  1  0.407200  0.872870  0.869100  1.0  -0.4971
  O  O568  1  0.477100  0.853000  0.773000  1.0  -0.569
  O  O569  1  0.755800  0.629170  0.610100  1.0  -0.5535
  O  O570  1  0.687100  0.637860  0.725600  1.0  -0.5366
  O  O571  1  0.384300  0.336850  0.083800  1.0  -0.6526
  O  O572  1  0.472800  0.331700  0.258900  1.0  -0.5917
  O  O573  1  0.396800  0.409180  0.114400  1.0  -0.6082
  O  O574  1  0.439700  0.398480  0.324600  1.0  -0.5838
  O  O575  1  0.305400  0.371760  0.180100  1.0  -0.7022
  O  O576  1  0.331950  0.366510  0.385100  1.0  -0.6503
  O  O577  1  0.223100  0.330540  0.406500  1.0  -0.6204
  O  O578  1  0.166000  0.354200  0.492300  1.0  -0.5969
  O  O579  1  0.313100  0.296050  0.647300  1.0  -0.5945
  O  O580  1  0.236100  0.304880  0.700400  1.0  -0.581
  O  O581  1  0.619400  0.290100  0.496500  1.0  -0.4582
  O  O582  1  0.703100  0.286900  0.674700  1.0  -0.5079
  O  O583  1  0.338600  0.627140  0.343300  1.0  -0.6921
  O  O584  1  0.311300  0.631800  0.138200  1.0  -0.6854
  O  O585  1  0.202100  0.600300  0.207500  1.0  -0.6281
  O  O586  1  0.254300  0.587360  0.416900  1.0  -0.5942
  O  O587  1  0.872200  0.196360  0.796300  1.0  -0.6032
  O  O588  1  0.826300  0.212350  0.911700  1.0  -0.5832
  O  O589  1  0.975800  0.154070  0.025500  1.0  -0.5998
  O  O590  1  0.921100  0.168890  0.130900  1.0  -0.5865
  O  O591  1  0.448900  0.208710  0.777400  1.0  -0.6051
  O  O592  1  0.552800  0.200160  0.975300  1.0  -0.5689
  O  O593  1  0.621100  0.542590  0.449300  1.0  -0.4972
  O  O594  1  0.588600  0.545840  0.215300  1.0  -0.5847
  O  O595  1  0.057600  0.452000  0.313300  1.0  -0.5258
  O  O596  1  0.023400  0.456740  0.078800  1.0  -0.5666
  O  O597  1  0.907200  0.372870  0.869100  1.0  -0.4971
  O  O598  1  0.977100  0.353000  0.773000  1.0  -0.569
  O  O599  1  0.255800  0.129170  0.610100  1.0  -0.5535
  O  O600  1  0.187100  0.137860  0.725600  1.0  -0.5366
