# generated using pymatgen
data_MnH4(C2O)4
_symmetry_space_group_name_H-M   'P 1'
_cell_length_a   13.06960000
_cell_length_b   13.06960000
_cell_length_c   11.28670000
_cell_angle_alpha   90.00000000
_cell_angle_beta   90.00000000
_cell_angle_gamma   90.00000000
_symmetry_Int_Tables_number   1
_chemical_formula_structural   MnH4(C2O)4
_chemical_formula_sum   'Mn8 H32 C64 O32'
_cell_volume   1927.93138690
_cell_formula_units_Z   8
loop_
 _symmetry_equiv_pos_site_id
 _symmetry_equiv_pos_as_xyz
  1  'x, y, z'
loop_
 _atom_site_type_symbol
 _atom_site_label
 _atom_site_symmetry_multiplicity
 _atom_site_fract_x
 _atom_site_fract_y
 _atom_site_fract_z
 _atom_site_occupancy
 _atom_site_charge
  Mn  Mn1  1  0.743030  0.989630  0.104740  1.0  1.1211
  Mn  Mn2  1  0.749940  0.219270  0.957900  1.0  1.1236
  Mn  Mn3  1  0.256970  0.010370  0.604740  1.0  1.1211
  Mn  Mn4  1  0.250060  0.780730  0.457900  1.0  1.1235
  Mn  Mn5  1  0.010370  0.743030  0.354740  1.0  1.1207
  Mn  Mn6  1  0.780730  0.749940  0.207900  1.0  1.1254
  Mn  Mn7  1  0.989630  0.256970  0.854740  1.0  1.121
  Mn  Mn8  1  0.219270  0.250060  0.707900  1.0  1.1241
  H  H9  1  0.989000  0.998600  0.714400  1.0  0.1082
  H  H10  1  0.922600  0.705100  0.646400  1.0  0.11
  H  H11  1  0.767300  0.724600  0.745100  1.0  0.1081
  H  H12  1  0.725400  0.878800  0.832500  1.0  0.1143
  H  H13  1  0.499300  0.879000  0.851300  1.0  0.1292
  H  H14  1  0.342800  0.623800  0.769800  1.0  0.1131
  H  H15  1  0.411700  0.541200  0.930000  1.0  0.1189
  H  H16  1  0.528600  0.626000  0.051600  1.0  0.1196
  H  H17  1  0.011000  0.001400  0.214400  1.0  0.1092
  H  H18  1  0.077400  0.294900  0.146400  1.0  0.1098
  H  H19  1  0.232700  0.275400  0.245100  1.0  0.1083
  H  H20  1  0.274600  0.121200  0.332500  1.0  0.1147
  H  H21  1  0.500700  0.121000  0.351300  1.0  0.1286
  H  H22  1  0.657200  0.376200  0.269800  1.0  0.1137
  H  H23  1  0.588300  0.458800  0.430000  1.0  0.1192
  H  H24  1  0.471400  0.374000  0.551600  1.0  0.119
  H  H25  1  0.001400  0.989000  0.964400  1.0  0.1082
  H  H26  1  0.294900  0.922600  0.896400  1.0  0.1092
  H  H27  1  0.275400  0.767300  0.995100  1.0  0.1086
  H  H28  1  0.121200  0.725400  0.082500  1.0  0.114
  H  H29  1  0.121000  0.499300  0.101300  1.0  0.1257
  H  H30  1  0.376200  0.342800  0.019800  1.0  0.1131
  H  H31  1  0.458800  0.411700  0.180000  1.0  0.1203
  H  H32  1  0.374000  0.528600  0.301600  1.0  0.1195
  H  H33  1  0.998600  0.011000  0.464400  1.0  0.1083
  H  H34  1  0.705100  0.077400  0.396400  1.0  0.1096
  H  H35  1  0.724600  0.232700  0.495100  1.0  0.1085
  H  H36  1  0.878800  0.274600  0.582500  1.0  0.1134
  H  H37  1  0.879000  0.500700  0.601300  1.0  0.1263
  H  H38  1  0.623800  0.657200  0.519800  1.0  0.113
  H  H39  1  0.541200  0.588300  0.680000  1.0  0.1205
  H  H40  1  0.626000  0.471400  0.801600  1.0  0.1196
  C  C41  1  0.827600  0.055200  0.838700  1.0  0.696
  C  C42  1  0.072500  0.841100  0.609100  1.0  0.6952
  C  C43  1  0.602600  0.813400  0.042900  1.0  0.7156
  C  C44  1  0.364900  0.810200  0.687400  1.0  0.7296
  C  C45  1  0.851900  0.954600  0.781600  1.0  -0.1377
  C  C46  1  0.944600  0.943300  0.720800  1.0  -0.0447
  C  C47  1  0.971200  0.849200  0.669600  1.0  -0.1239
  C  C48  1  0.905400  0.768000  0.679600  1.0  -0.0235
  C  C49  1  0.812200  0.779500  0.739800  1.0  -0.116
  C  C50  1  0.786600  0.872200  0.791300  1.0  -0.0134
  C  C51  1  0.525200  0.760800  0.963300  1.0  -0.1226
  C  C52  1  0.482500  0.811100  0.866600  1.0  -0.0481
  C  C53  1  0.414400  0.759000  0.792500  1.0  -0.1368
  C  C54  1  0.388800  0.658200  0.818400  1.0  -0.0808
  C  C55  1  0.429900  0.608600  0.913900  1.0  -0.1087
  C  C56  1  0.499600  0.659600  0.987200  1.0  -0.023
  C  C57  1  0.172400  0.944800  0.338700  1.0  0.6964
  C  C58  1  0.927500  0.158900  0.109100  1.0  0.6935
  C  C59  1  0.397400  0.186600  0.542900  1.0  0.7165
  C  C60  1  0.635100  0.189800  0.187400  1.0  0.7292
  C  C61  1  0.148100  0.045400  0.281600  1.0  -0.139
  C  C62  1  0.055400  0.056700  0.220800  1.0  -0.0444
  C  C63  1  0.028800  0.150800  0.169600  1.0  -0.1239
  C  C64  1  0.094600  0.232000  0.179600  1.0  -0.0236
  C  C65  1  0.187800  0.220500  0.239800  1.0  -0.1146
  C  C66  1  0.213400  0.127800  0.291300  1.0  -0.0141
  C  C67  1  0.474800  0.239200  0.463300  1.0  -0.1224
  C  C68  1  0.517500  0.188900  0.366600  1.0  -0.0463
  C  C69  1  0.585600  0.241000  0.292500  1.0  -0.1387
  C  C70  1  0.611200  0.341800  0.318400  1.0  -0.082
  C  C71  1  0.570100  0.391400  0.413900  1.0  -0.1085
  C  C72  1  0.500400  0.340400  0.487200  1.0  -0.0233
  C  C73  1  0.944800  0.827600  0.088700  1.0  0.6953
  C  C74  1  0.158900  0.072500  0.859100  1.0  0.6961
  C  C75  1  0.186600  0.602600  0.292900  1.0  0.7183
  C  C76  1  0.189800  0.364900  0.937400  1.0  0.7302
  C  C77  1  0.045400  0.851900  0.031600  1.0  -0.138
  C  C78  1  0.056700  0.944600  0.970800  1.0  -0.0447
  C  C79  1  0.150800  0.971200  0.919600  1.0  -0.1251
  C  C80  1  0.232000  0.905400  0.929600  1.0  -0.025
  C  C81  1  0.220500  0.812200  0.989800  1.0  -0.1152
  C  C82  1  0.127800  0.786600  0.041300  1.0  -0.0156
  C  C83  1  0.239200  0.525200  0.213300  1.0  -0.1219
  C  C84  1  0.188900  0.482500  0.116600  1.0  -0.0438
  C  C85  1  0.241000  0.414400  0.042500  1.0  -0.1398
  C  C86  1  0.341800  0.388800  0.068400  1.0  -0.082
  C  C87  1  0.391400  0.429900  0.163900  1.0  -0.1146
  C  C88  1  0.340400  0.499600  0.237200  1.0  -0.0231
  C  C89  1  0.055200  0.172400  0.588700  1.0  0.695
  C  C90  1  0.841100  0.927500  0.359100  1.0  0.6963
  C  C91  1  0.813400  0.397400  0.792900  1.0  0.7176
  C  C92  1  0.810200  0.635100  0.437400  1.0  0.7295
  C  C93  1  0.954600  0.148100  0.531600  1.0  -0.1382
  C  C94  1  0.943300  0.055400  0.470800  1.0  -0.0457
  C  C95  1  0.849200  0.028800  0.419600  1.0  -0.1246
  C  C96  1  0.768000  0.094600  0.429600  1.0  -0.0223
  C  C97  1  0.779500  0.187800  0.489800  1.0  -0.1157
  C  C98  1  0.872200  0.213400  0.541300  1.0  -0.0142
  C  C99  1  0.760800  0.474800  0.713300  1.0  -0.1215
  C  C100  1  0.811100  0.517500  0.616600  1.0  -0.0443
  C  C101  1  0.759000  0.585600  0.542500  1.0  -0.1389
  C  C102  1  0.658200  0.611200  0.568400  1.0  -0.0796
  C  C103  1  0.608600  0.570100  0.663900  1.0  -0.1155
  C  C104  1  0.659600  0.500400  0.737200  1.0  -0.0223
  O  O105  1  0.760100  0.056500  0.919300  1.0  -0.6387
  O  O106  1  0.872400  0.135400  0.807300  1.0  -0.658
  O  O107  1  0.087500  0.772100  0.530900  1.0  -0.6607
  O  O108  1  0.140300  0.903700  0.638400  1.0  -0.6357
  O  O109  1  0.643000  0.759200  0.122200  1.0  -0.6293
  O  O110  1  0.622800  0.904900  0.025600  1.0  -0.5755
  O  O111  1  0.321800  0.750000  0.616100  1.0  -0.6152
  O  O112  1  0.367600  0.905200  0.678800  1.0  -0.6067
  O  O113  1  0.239900  0.943500  0.419300  1.0  -0.6376
  O  O114  1  0.127600  0.864600  0.307300  1.0  -0.6594
  O  O115  1  0.912500  0.227900  0.030900  1.0  -0.6627
  O  O116  1  0.859700  0.096300  0.138400  1.0  -0.636
  O  O117  1  0.357000  0.240800  0.622200  1.0  -0.6286
  O  O118  1  0.377200  0.095100  0.525600  1.0  -0.5749
  O  O119  1  0.678200  0.250000  0.116100  1.0  -0.6158
  O  O120  1  0.632400  0.094800  0.178800  1.0  -0.609
  O  O121  1  0.943500  0.760100  0.169300  1.0  -0.6403
  O  O122  1  0.864600  0.872400  0.057300  1.0  -0.6561
  O  O123  1  0.227900  0.087500  0.780900  1.0  -0.6584
  O  O124  1  0.096300  0.140300  0.888400  1.0  -0.6394
  O  O125  1  0.240800  0.643000  0.372200  1.0  -0.6264
  O  O126  1  0.095100  0.622800  0.275600  1.0  -0.574
  O  O127  1  0.250000  0.321800  0.866100  1.0  -0.616
  O  O128  1  0.094800  0.367600  0.928800  1.0  -0.6054
  O  O129  1  0.056500  0.239900  0.669300  1.0  -0.6404
  O  O130  1  0.135400  0.127600  0.557300  1.0  -0.6556
  O  O131  1  0.772100  0.912500  0.280900  1.0  -0.6614
  O  O132  1  0.903700  0.859700  0.388400  1.0  -0.639
  O  O133  1  0.759200  0.357000  0.872200  1.0  -0.6283
  O  O134  1  0.904900  0.377200  0.775600  1.0  -0.5752
  O  O135  1  0.750000  0.678200  0.366100  1.0  -0.6146
  O  O136  1  0.905200  0.632400  0.428800  1.0  -0.6062
