# generated using pymatgen
data_Co7H54C60(NO)18
_symmetry_space_group_name_H-M   'P 1'
_cell_length_a   14.44300000
_cell_length_b   22.19870000
_cell_length_c   17.76280000
_cell_angle_alpha   90.00000000
_cell_angle_beta   103.97500000
_cell_angle_gamma   90.00000000
_symmetry_Int_Tables_number   1
_chemical_formula_structural   Co7H54C60(NO)18
_chemical_formula_sum   'Co14 H108 C120 N36 O36'
_cell_volume   5526.46852131
_cell_formula_units_Z   2
loop_
 _symmetry_equiv_pos_site_id
 _symmetry_equiv_pos_as_xyz
  1  'x, y, z'
loop_
 _atom_site_type_symbol
 _atom_site_label
 _atom_site_symmetry_multiplicity
 _atom_site_fract_x
 _atom_site_fract_y
 _atom_site_fract_z
 _atom_site_occupancy
 _atom_site_charge
  Co  Co1  1  0.543850  0.059670  0.319160  1.0  0.8269
  Co  Co2  1  0.499070  0.136540  0.472500  1.0  1.0469
  Co  Co3  1  0.451280  0.103790  0.648440  1.0  0.9313
  Co  Co4  1  0.956150  0.559670  0.180840  1.0  0.822
  Co  Co5  1  0.000930  0.636540  0.027500  1.0  1.0469
  Co  Co6  1  0.048720  0.603790  0.851560  1.0  0.9359
  Co  Co7  1  0.456150  0.940330  0.680840  1.0  0.822
  Co  Co8  1  0.500930  0.863460  0.527500  1.0  1.0479
  Co  Co9  1  0.548720  0.896210  0.351560  1.0  0.9354
  Co  Co10  1  0.043850  0.440330  0.819160  1.0  0.8268
  Co  Co11  1  0.999070  0.363460  0.972500  1.0  1.0477
  Co  Co12  1  0.951280  0.396210  0.148440  1.0  0.9318
  Co  Co13  1  0.500000  0.000000  0.500000  1.0  0.9749
  Co  Co14  1  0.000000  0.500000  0.000000  1.0  0.9749
  H  H15  1  0.215000  0.110400  0.636900  1.0  0.0878
  H  H16  1  0.715200  0.328300  0.623800  1.0  0.1101
  H  H17  1  0.564800  0.303200  0.549500  1.0  0.0965
  H  H18  1  0.802600  0.199300  0.808800  1.0  0.1201
  H  H19  1  0.611200  0.336500  0.813500  1.0  0.1033
  H  H20  1  0.224200  0.934900  0.669600  1.0  0.0904
  H  H21  1  0.380800  0.312500  0.543600  1.0  0.1133
  H  H22  1  0.351200  0.293200  0.619800  1.0  0.1065
  H  H23  1  0.830400  0.400800  0.696700  1.0  0.0894
  H  H24  1  0.662100  0.166000  0.749300  1.0  0.1002
  H  H25  1  0.136800  0.221500  0.856100  1.0  0.1118
  H  H26  1  0.149300  0.254400  0.780600  1.0  0.1111
  H  H27  1  0.775900  0.321000  0.879200  1.0  0.0952
  H  H28  1  0.958100  0.224400  0.871000  1.0  0.0916
  H  H29  1  0.890100  0.943900  0.591100  1.0  0.0921
  H  H30  1  0.085400  0.095500  0.717500  1.0  0.1089
  H  H31  1  0.461600  0.307800  0.739500  1.0  0.1021
  H  H32  1  0.723700  0.181900  0.547700  1.0  0.0951
  H  H33  1  0.925900  0.090500  0.723100  1.0  0.0891
  H  H34  1  0.025500  0.237100  0.667400  1.0  0.102
  H  H35  1  0.780800  0.973900  0.686500  1.0  0.1225
  H  H36  1  0.777400  0.043600  0.698000  1.0  0.1276
  H  H37  1  0.048000  0.947000  0.584300  1.0  0.1219
  H  H38  1  0.869000  0.211900  0.604600  1.0  0.1188
  H  H39  1  0.380000  0.074000  0.521000  1.0  0.3817
  H  H40  1  0.614000  0.062000  0.454000  1.0  0.4484
  H  H41  1  0.429000  0.974000  0.261000  1.0  0.4829
  H  H42  1  0.285000  0.610400  0.863100  1.0  0.0874
  H  H43  1  0.784800  0.828300  0.876200  1.0  0.1107
  H  H44  1  0.935200  0.803200  0.950500  1.0  0.0968
  H  H45  1  0.697400  0.699300  0.691200  1.0  0.1204
  H  H46  1  0.888800  0.836500  0.686500  1.0  0.1036
  H  H47  1  0.275800  0.434900  0.830400  1.0  0.0902
  H  H48  1  0.119200  0.812500  0.956400  1.0  0.1131
  H  H49  1  0.148800  0.793200  0.880200  1.0  0.105
  H  H50  1  0.669600  0.900800  0.803300  1.0  0.0899
  H  H51  1  0.837900  0.666000  0.750700  1.0  0.0998
  H  H52  1  0.363200  0.721500  0.643900  1.0  0.1114
  H  H53  1  0.350700  0.754400  0.719400  1.0  0.1123
  H  H54  1  0.724100  0.821000  0.620800  1.0  0.0939
  H  H55  1  0.541900  0.724400  0.629000  1.0  0.0918
  H  H56  1  0.609900  0.443900  0.908900  1.0  0.0922
  H  H57  1  0.414600  0.595500  0.782500  1.0  0.1092
  H  H58  1  0.038400  0.807800  0.760500  1.0  0.1024
  H  H59  1  0.776300  0.681900  0.952300  1.0  0.094
  H  H60  1  0.574100  0.590500  0.776900  1.0  0.0891
  H  H61  1  0.474500  0.737100  0.832600  1.0  0.1021
  H  H62  1  0.719200  0.473900  0.813500  1.0  0.1225
  H  H63  1  0.722600  0.543600  0.802000  1.0  0.1281
  H  H64  1  0.452000  0.447000  0.915700  1.0  0.122
  H  H65  1  0.631000  0.711900  0.895400  1.0  0.1183
  H  H66  1  0.120000  0.574000  0.979000  1.0  0.3802
  H  H67  1  0.886000  0.562000  0.046000  1.0  0.4495
  H  H68  1  0.071000  0.474000  0.239000  1.0  0.4808
  H  H69  1  0.785000  0.889600  0.363100  1.0  0.0879
  H  H70  1  0.284800  0.671700  0.376200  1.0  0.1111
  H  H71  1  0.435200  0.696800  0.450500  1.0  0.0969
  H  H72  1  0.197400  0.800700  0.191200  1.0  0.1211
  H  H73  1  0.388800  0.663500  0.186500  1.0  0.1041
  H  H74  1  0.775800  0.065100  0.330400  1.0  0.0904
  H  H75  1  0.619200  0.687500  0.456400  1.0  0.1122
  H  H76  1  0.648800  0.706800  0.380200  1.0  0.1045
  H  H77  1  0.169600  0.599200  0.303300  1.0  0.0895
  H  H78  1  0.337900  0.834000  0.250700  1.0  0.0997
  H  H79  1  0.863200  0.778500  0.143900  1.0  0.1116
  H  H80  1  0.850700  0.745600  0.219400  1.0  0.1124
  H  H81  1  0.224100  0.679000  0.120800  1.0  0.094
  H  H82  1  0.041900  0.775600  0.129000  1.0  0.0917
  H  H83  1  0.109900  0.056100  0.408900  1.0  0.092
  H  H84  1  0.914600  0.904500  0.282500  1.0  0.1089
  H  H85  1  0.538400  0.692200  0.260500  1.0  0.1025
  H  H86  1  0.276300  0.818100  0.452300  1.0  0.0944
  H  H87  1  0.074100  0.909500  0.276900  1.0  0.0894
  H  H88  1  0.974500  0.762900  0.332600  1.0  0.1025
  H  H89  1  0.219200  0.026100  0.313500  1.0  0.1227
  H  H90  1  0.222600  0.956400  0.302000  1.0  0.1281
  H  H91  1  0.952000  0.053000  0.415700  1.0  0.1215
  H  H92  1  0.131000  0.788100  0.395400  1.0  0.1186
  H  H93  1  0.620000  0.926000  0.479000  1.0  0.381
  H  H94  1  0.386000  0.938000  0.546000  1.0  0.4495
  H  H95  1  0.571000  0.026000  0.739000  1.0  0.4807
  H  H96  1  0.715000  0.389600  0.136900  1.0  0.0879
  H  H97  1  0.215200  0.171700  0.123800  1.0  0.1102
  H  H98  1  0.064800  0.196800  0.049500  1.0  0.0976
  H  H99  1  0.302600  0.300700  0.308800  1.0  0.12
  H  H100  1  0.111200  0.163500  0.313500  1.0  0.1026
  H  H101  1  0.724200  0.565100  0.169600  1.0  0.0906
  H  H102  1  0.880800  0.187500  0.043600  1.0  0.1131
  H  H103  1  0.851200  0.206800  0.119800  1.0  0.1067
  H  H104  1  0.330400  0.099200  0.196700  1.0  0.0887
  H  H105  1  0.162100  0.334000  0.249300  1.0  0.1
  H  H106  1  0.636800  0.278500  0.356100  1.0  0.1115
  H  H107  1  0.649300  0.245600  0.280600  1.0  0.111
  H  H108  1  0.275900  0.179000  0.379200  1.0  0.095
  H  H109  1  0.458100  0.275600  0.371000  1.0  0.0913
  H  H110  1  0.390100  0.556100  0.091100  1.0  0.0922
  H  H111  1  0.585400  0.404500  0.217500  1.0  0.1091
  H  H112  1  0.961600  0.192200  0.239500  1.0  0.1018
  H  H113  1  0.223700  0.318100  0.047700  1.0  0.095
  H  H114  1  0.425900  0.409500  0.223100  1.0  0.0896
  H  H115  1  0.525500  0.262900  0.167400  1.0  0.1019
  H  H116  1  0.280800  0.526100  0.186500  1.0  0.1219
  H  H117  1  0.277400  0.456400  0.198000  1.0  0.1275
  H  H118  1  0.548000  0.553000  0.084300  1.0  0.1213
  H  H119  1  0.369000  0.288100  0.104600  1.0  0.1182
  H  H120  1  0.880000  0.426000  0.021000  1.0  0.3819
  H  H121  1  0.114000  0.438000  0.954000  1.0  0.4487
  H  H122  1  0.929000  0.526000  0.761000  1.0  0.4827
  C  C123  1  0.237200  0.071000  0.645600  1.0  0.1143
  C  C124  1  0.496300  0.304360  0.637100  1.0  0.0512
  C  C125  1  0.823600  0.201360  0.701200  1.0  0.0839
  C  C126  1  0.400000  0.221500  0.566100  1.0  0.7406
  C  C127  1  0.663900  0.325350  0.646700  1.0  -0.1747
  C  C128  1  0.573900  0.309900  0.602400  1.0  -0.0643
  C  C129  1  0.892600  0.017200  0.657800  1.0  0.0568
  C  C130  1  0.713900  0.017700  0.587100  1.0  0.7205
  C  C131  1  0.081700  0.022100  0.651700  1.0  0.1706
  C  C132  1  0.676100  0.336300  0.725300  1.0  0.1527
  C  C133  1  0.847700  0.206200  0.780200  1.0  -0.1706
  C  C134  1  0.601800  0.329800  0.760500  1.0  -0.1738
  C  C135  1  0.242000  0.974500  0.663500  1.0  0.0929
  C  C136  1  0.008100  0.233300  0.775300  1.0  0.0537
  C  C137  1  0.398100  0.287300  0.589500  1.0  -0.4007
  C  C138  1  0.835900  0.386600  0.746900  1.0  0.1238
  C  C139  1  0.658200  0.164400  0.696300  1.0  0.135
  C  C140  1  0.109400  0.251400  0.817100  1.0  -0.373
  C  C141  1  0.806100  0.342700  0.847100  1.0  0.1425
  C  C142  1  0.102600  0.312200  0.855200  1.0  0.7249
  C  C143  1  0.940700  0.221700  0.817100  1.0  -0.1017
  C  C144  1  0.929600  0.974400  0.616600  1.0  -0.0765
  C  C145  1  0.046400  0.064800  0.692100  1.0  -0.1629
  C  C146  1  0.511700  0.313100  0.715600  1.0  -0.0933
  C  C147  1  0.692000  0.173100  0.586200  1.0  0.1206
  C  C148  1  0.950300  0.061700  0.695100  1.0  -0.1122
  C  C149  1  0.981100  0.229400  0.696500  1.0  -0.0946
  C  C150  1  0.789100  0.012400  0.663200  1.0  -0.3789
  C  C151  1  0.023800  0.975900  0.612400  1.0  -0.2348
  C  C152  1  0.887300  0.213700  0.658500  1.0  -0.1847
  C  C153  1  0.262800  0.571000  0.854400  1.0  0.1151
  C  C154  1  0.003700  0.804360  0.862900  1.0  0.0503
  C  C155  1  0.676400  0.701360  0.798800  1.0  0.083
  C  C156  1  0.100000  0.721500  0.933900  1.0  0.7409
  C  C157  1  0.836100  0.825350  0.853300  1.0  -0.1742
  C  C158  1  0.926100  0.809900  0.897600  1.0  -0.0634
  C  C159  1  0.607400  0.517200  0.842200  1.0  0.0572
  C  C160  1  0.786100  0.517700  0.912900  1.0  0.7224
  C  C161  1  0.418300  0.522100  0.848300  1.0  0.1705
  C  C162  1  0.823900  0.836300  0.774700  1.0  0.1536
  C  C163  1  0.652300  0.706200  0.719800  1.0  -0.1728
  C  C164  1  0.898200  0.829800  0.739500  1.0  -0.1731
  C  C165  1  0.258000  0.474500  0.836500  1.0  0.0921
  C  C166  1  0.491900  0.733300  0.724700  1.0  0.0526
  C  C167  1  0.101900  0.787300  0.910500  1.0  -0.3999
  C  C168  1  0.664100  0.886600  0.753100  1.0  0.1258
  C  C169  1  0.841800  0.664400  0.803700  1.0  0.1363
  C  C170  1  0.390600  0.751400  0.682900  1.0  -0.3721
  C  C171  1  0.693900  0.842700  0.652900  1.0  0.1437
  C  C172  1  0.397400  0.812200  0.644800  1.0  0.7265
  C  C173  1  0.559300  0.721700  0.682900  1.0  -0.1026
  C  C174  1  0.570400  0.474400  0.883400  1.0  -0.0769
  C  C175  1  0.453600  0.564800  0.807900  1.0  -0.1625
  C  C176  1  0.988300  0.813100  0.784400  1.0  -0.093
  C  C177  1  0.808000  0.673100  0.913800  1.0  0.1206
  C  C178  1  0.549700  0.561700  0.804900  1.0  -0.1139
  C  C179  1  0.518900  0.729400  0.803500  1.0  -0.0952
  C  C180  1  0.710900  0.512400  0.836800  1.0  -0.3794
  C  C181  1  0.476200  0.475900  0.887600  1.0  -0.2342
  C  C182  1  0.612700  0.713700  0.841500  1.0  -0.1858
  C  C183  1  0.762800  0.929000  0.354400  1.0  0.1137
  C  C184  1  0.503700  0.695640  0.362900  1.0  0.051
  C  C185  1  0.176400  0.798640  0.298800  1.0  0.0828
  C  C186  1  0.600000  0.778500  0.433900  1.0  0.7413
  C  C187  1  0.336100  0.674650  0.353300  1.0  -0.1746
  C  C188  1  0.426100  0.690100  0.397600  1.0  -0.0663
  C  C189  1  0.107400  0.982800  0.342200  1.0  0.0563
  C  C190  1  0.286100  0.982300  0.412900  1.0  0.7225
  C  C191  1  0.918300  0.977900  0.348300  1.0  0.1706
  C  C192  1  0.323900  0.663700  0.274700  1.0  0.154
  C  C193  1  0.152300  0.793800  0.219800  1.0  -0.1719
  C  C194  1  0.398200  0.670200  0.239500  1.0  -0.1721
  C  C195  1  0.758000  0.025500  0.336500  1.0  0.0935
  C  C196  1  0.991900  0.766700  0.224700  1.0  0.0524
  C  C197  1  0.601900  0.712700  0.410500  1.0  -0.3979
  C  C198  1  0.164100  0.613400  0.253100  1.0  0.1257
  C  C199  1  0.341800  0.835600  0.303700  1.0  0.1358
  C  C200  1  0.890600  0.748600  0.182900  1.0  -0.3723
  C  C201  1  0.193900  0.657300  0.152900  1.0  0.1428
  C  C202  1  0.897400  0.687800  0.144800  1.0  0.7264
  C  C203  1  0.059300  0.778300  0.182900  1.0  -0.1032
  C  C204  1  0.070400  0.025600  0.383400  1.0  -0.0784
  C  C205  1  0.953600  0.935200  0.307900  1.0  -0.163
  C  C206  1  0.488300  0.686900  0.284400  1.0  -0.0931
  C  C207  1  0.308000  0.826900  0.413800  1.0  0.1208
  C  C208  1  0.049700  0.938300  0.304900  1.0  -0.1142
  C  C209  1  0.018900  0.770600  0.303500  1.0  -0.0949
  C  C210  1  0.210900  0.987600  0.336800  1.0  -0.3801
  C  C211  1  0.976200  0.024100  0.387600  1.0  -0.2354
  C  C212  1  0.112700  0.786300  0.341500  1.0  -0.1853
  C  C213  1  0.737200  0.429000  0.145600  1.0  0.113
  C  C214  1  0.996300  0.195640  0.137100  1.0  0.0519
  C  C215  1  0.323600  0.298640  0.201200  1.0  0.0837
  C  C216  1  0.900000  0.278500  0.066100  1.0  0.7409
  C  C217  1  0.163900  0.174650  0.146700  1.0  -0.1745
  C  C218  1  0.073900  0.190100  0.102400  1.0  -0.0638
  C  C219  1  0.392600  0.482800  0.157800  1.0  0.0563
  C  C220  1  0.213900  0.482300  0.087100  1.0  0.7206
  C  C221  1  0.581700  0.477900  0.151700  1.0  0.1707
  C  C222  1  0.176100  0.163700  0.225300  1.0  0.153
  C  C223  1  0.347700  0.293800  0.280200  1.0  -0.1703
  C  C224  1  0.101800  0.170200  0.260500  1.0  -0.1743
  C  C225  1  0.742000  0.525500  0.163500  1.0  0.0939
  C  C226  1  0.508100  0.266700  0.275300  1.0  0.0539
  C  C227  1  0.898100  0.212700  0.089500  1.0  -0.3986
  C  C228  1  0.335900  0.113400  0.246900  1.0  0.1226
  C  C229  1  0.158200  0.335600  0.196300  1.0  0.1342
  C  C230  1  0.609400  0.248600  0.317100  1.0  -0.3728
  C  C231  1  0.306100  0.157300  0.347100  1.0  0.1418
  C  C232  1  0.602600  0.187800  0.355200  1.0  0.7251
  C  C233  1  0.440700  0.278300  0.317100  1.0  -0.1004
  C  C234  1  0.429600  0.525600  0.116600  1.0  -0.0768
  C  C235  1  0.546400  0.435200  0.192100  1.0  -0.1639
  C  C236  1  0.011700  0.186900  0.215600  1.0  -0.0923
  C  C237  1  0.192000  0.326900  0.086200  1.0  0.1215
  C  C238  1  0.450300  0.438300  0.195100  1.0  -0.1131
  C  C239  1  0.481100  0.270600  0.196500  1.0  -0.0944
  C  C240  1  0.289100  0.487600  0.163200  1.0  -0.3791
  C  C241  1  0.523800  0.524100  0.112400  1.0  -0.2346
  C  C242  1  0.387300  0.286300  0.158500  1.0  -0.1839
  N  N243  1  0.583700  0.145560  0.643900  1.0  -0.2298
  N  N244  1  0.727800  0.181160  0.662900  1.0  0.0335
  N  N245  1  0.768800  0.353930  0.770800  1.0  0.0345
  N  N246  1  0.181900  0.022640  0.651600  1.0  0.0144
  N  N247  1  0.909600  0.394960  0.805300  1.0  -0.2057
  N  N248  1  0.606000  0.151120  0.574200  1.0  -0.2107
  N  N249  1  0.328300  0.992410  0.665100  1.0  -0.2729
  N  N250  1  0.890500  0.366800  0.868800  1.0  -0.2144
  N  N251  1  0.325100  0.054640  0.653700  1.0  -0.258
  N  N252  1  0.916300  0.645560  0.856100  1.0  -0.2308
  N  N253  1  0.772200  0.681160  0.837100  1.0  0.034
  N  N254  1  0.731200  0.853930  0.729200  1.0  0.0353
  N  N255  1  0.318100  0.522640  0.848400  1.0  0.0169
  N  N256  1  0.590400  0.894960  0.694700  1.0  -0.2066
  N  N257  1  0.894000  0.651120  0.925800  1.0  -0.2091
  N  N258  1  0.171700  0.492410  0.834900  1.0  -0.2756
  N  N259  1  0.609500  0.866800  0.631200  1.0  -0.215
  N  N260  1  0.174900  0.554640  0.846300  1.0  -0.2593
  N  N261  1  0.416300  0.854440  0.356100  1.0  -0.2302
  N  N262  1  0.272200  0.818840  0.337100  1.0  0.0341
  N  N263  1  0.231200  0.646070  0.229200  1.0  0.0351
  N  N264  1  0.818100  0.977360  0.348400  1.0  0.017
  N  N265  1  0.090400  0.605040  0.194700  1.0  -0.2062
  N  N266  1  0.394000  0.848880  0.425800  1.0  -0.2092
  N  N267  1  0.671700  0.007590  0.334900  1.0  -0.274
  N  N268  1  0.109500  0.633200  0.131200  1.0  -0.2149
  N  N269  1  0.674900  0.945360  0.346300  1.0  -0.2593
  N  N270  1  0.083700  0.354440  0.143900  1.0  -0.2302
  N  N271  1  0.227800  0.318840  0.162900  1.0  0.0336
  N  N272  1  0.268800  0.146070  0.270800  1.0  0.0346
  N  N273  1  0.681900  0.477360  0.151600  1.0  0.0145
  N  N274  1  0.409600  0.105040  0.305300  1.0  -0.2053
  N  N275  1  0.106000  0.348880  0.074200  1.0  -0.2106
  N  N276  1  0.828300  0.507590  0.165100  1.0  -0.2739
  N  N277  1  0.390500  0.133200  0.368800  1.0  -0.2142
  N  N278  1  0.825100  0.445360  0.153700  1.0  -0.2552
  O  O279  1  0.555170  0.059810  0.433990  1.0  -0.9815
  O  O280  1  0.439440  0.075770  0.537940  1.0  -0.9411
  O  O281  1  0.080100  0.309380  0.918830  1.0  -0.6207
  O  O282  1  0.376200  0.183510  0.611150  1.0  -0.6384
  O  O283  1  0.115900  0.358630  0.819800  1.0  -0.6232
  O  O284  1  0.428900  0.209340  0.507300  1.0  -0.6024
  O  O285  1  0.737700  0.031330  0.526100  1.0  -0.566
  O  O286  1  0.629830  0.008040  0.590840  1.0  -0.6032
  O  O287  1  0.465760  0.975230  0.305690  1.0  -0.9166
  O  O288  1  0.944830  0.559810  0.066010  1.0  -0.981
  O  O289  1  0.060560  0.575770  0.962060  1.0  -0.9399
  O  O290  1  0.419900  0.809380  0.581170  1.0  -0.6217
  O  O291  1  0.123800  0.683510  0.888850  1.0  -0.6368
  O  O292  1  0.384100  0.858630  0.680200  1.0  -0.6246
  O  O293  1  0.071100  0.709340  0.992700  1.0  -0.6009
  O  O294  1  0.762300  0.531330  0.973900  1.0  -0.5656
  O  O295  1  0.870170  0.508040  0.909160  1.0  -0.6054
  O  O296  1  0.034240  0.475230  0.194310  1.0  -0.9158
  O  O297  1  0.444830  0.940190  0.566010  1.0  -0.9815
  O  O298  1  0.560560  0.924230  0.462060  1.0  -0.9396
  O  O299  1  0.919900  0.690620  0.081170  1.0  -0.6216
  O  O300  1  0.623800  0.816490  0.388850  1.0  -0.6364
  O  O301  1  0.884100  0.641370  0.180200  1.0  -0.6247
  O  O302  1  0.571100  0.790660  0.492700  1.0  -0.6012
  O  O303  1  0.262300  0.968670  0.473900  1.0  -0.5661
  O  O304  1  0.370170  0.991960  0.409160  1.0  -0.6048
  O  O305  1  0.534240  0.024770  0.694310  1.0  -0.9155
  O  O306  1  0.055170  0.440190  0.933990  1.0  -0.9816
  O  O307  1  0.939440  0.424230  0.037940  1.0  -0.9405
  O  O308  1  0.580100  0.190620  0.418830  1.0  -0.6202
  O  O309  1  0.876200  0.316490  0.111150  1.0  -0.6378
  O  O310  1  0.615900  0.141370  0.319800  1.0  -0.6212
  O  O311  1  0.928900  0.290660  0.007300  1.0  -0.6027
  O  O312  1  0.237700  0.468670  0.026100  1.0  -0.5665
  O  O313  1  0.129830  0.491960  0.090840  1.0  -0.6032
  O  O314  1  0.965760  0.524770  0.805690  1.0  -0.917
