# generated using pymatgen
data_NiH18C28(N2O)4
_symmetry_space_group_name_H-M   'P 1'
_cell_length_a   21.15600000
_cell_length_b   8.72600000
_cell_length_c   15.84700000
_cell_angle_alpha   90.00000000
_cell_angle_beta   90.00000000
_cell_angle_gamma   90.00000000
_symmetry_Int_Tables_number   1
_chemical_formula_structural   NiH18C28(N2O)4
_chemical_formula_sum   'Ni4 H72 C112 N32 O16'
_cell_volume   2925.47118583
_cell_formula_units_Z   4
loop_
 _symmetry_equiv_pos_site_id
 _symmetry_equiv_pos_as_xyz
  1  'x, y, z'
loop_
 _atom_site_type_symbol
 _atom_site_label
 _atom_site_symmetry_multiplicity
 _atom_site_fract_x
 _atom_site_fract_y
 _atom_site_fract_z
 _atom_site_occupancy
 _atom_site_charge
  Ni  Ni1  1  0.500000  0.730250  0.250000  1.0  0.6912
  Ni  Ni2  1  0.000000  0.730250  0.750000  1.0  0.6912
  Ni  Ni3  1  0.000000  0.269750  0.250000  1.0  0.6914
  Ni  Ni4  1  0.500000  0.269750  0.750000  1.0  0.6914
  H  H5  1  0.955500  0.861000  0.023400  1.0  0.1
  H  H6  1  0.845100  0.067000  0.851400  1.0  0.0997
  H  H7  1  0.842500  0.106100  0.226900  1.0  0.3149
  H  H8  1  0.899700  0.979400  0.130600  1.0  0.1146
  H  H9  1  0.787300  0.180000  0.958800  1.0  0.1076
  H  H10  1  0.680700  0.388300  0.332400  1.0  0.1264
  H  H11  1  0.595400  0.547100  0.352700  1.0  0.0791
  H  H12  1  0.644300  0.400800  0.084200  1.0  0.1249
  H  H13  1  0.561100  0.561300  0.111600  1.0  0.087
  H  H14  1  0.044500  0.861000  0.476600  1.0  0.1
  H  H15  1  0.154900  0.067000  0.648600  1.0  0.0993
  H  H16  1  0.157500  0.106100  0.273100  1.0  0.3153
  H  H17  1  0.100300  0.979400  0.369400  1.0  0.1161
  H  H18  1  0.212700  0.180000  0.541200  1.0  0.1072
  H  H19  1  0.319300  0.388300  0.167600  1.0  0.1262
  H  H20  1  0.404600  0.547100  0.147300  1.0  0.0797
  H  H21  1  0.355700  0.400800  0.415800  1.0  0.1249
  H  H22  1  0.438900  0.561300  0.388400  1.0  0.0863
  H  H23  1  0.455500  0.861000  0.976600  1.0  0.1001
  H  H24  1  0.345100  0.067000  0.148600  1.0  0.0996
  H  H25  1  0.342500  0.106100  0.773100  1.0  0.3155
  H  H26  1  0.399700  0.979400  0.869400  1.0  0.1152
  H  H27  1  0.287300  0.180000  0.041200  1.0  0.1075
  H  H28  1  0.180700  0.388300  0.667600  1.0  0.1262
  H  H29  1  0.095400  0.547100  0.647300  1.0  0.0799
  H  H30  1  0.144300  0.400800  0.915800  1.0  0.1249
  H  H31  1  0.061100  0.561300  0.888400  1.0  0.0867
  H  H32  1  0.544500  0.861000  0.523400  1.0  0.0997
  H  H33  1  0.654900  0.067000  0.351400  1.0  0.0995
  H  H34  1  0.657500  0.106100  0.726900  1.0  0.315
  H  H35  1  0.600300  0.979400  0.630600  1.0  0.1149
  H  H36  1  0.712700  0.180000  0.458800  1.0  0.1074
  H  H37  1  0.819300  0.388300  0.832400  1.0  0.1263
  H  H38  1  0.904600  0.547100  0.852700  1.0  0.0796
  H  H39  1  0.855700  0.400800  0.584200  1.0  0.125
  H  H40  1  0.938900  0.561300  0.611600  1.0  0.0868
  H  H41  1  0.544500  0.139000  0.023400  1.0  0.1
  H  H42  1  0.654900  0.933000  0.851400  1.0  0.0994
  H  H43  1  0.657500  0.893900  0.226900  1.0  0.3152
  H  H44  1  0.600300  0.020600  0.130600  1.0  0.1147
  H  H45  1  0.712700  0.820000  0.958800  1.0  0.1073
  H  H46  1  0.819300  0.611700  0.332400  1.0  0.1264
  H  H47  1  0.904600  0.452900  0.352700  1.0  0.079
  H  H48  1  0.855700  0.599200  0.084200  1.0  0.1249
  H  H49  1  0.938900  0.438700  0.111600  1.0  0.087
  H  H50  1  0.455500  0.139000  0.476600  1.0  0.1003
  H  H51  1  0.345100  0.933000  0.648600  1.0  0.0998
  H  H52  1  0.342500  0.893900  0.273100  1.0  0.3161
  H  H53  1  0.399700  0.020600  0.369400  1.0  0.1154
  H  H54  1  0.287300  0.820000  0.541200  1.0  0.1077
  H  H55  1  0.180700  0.611700  0.167600  1.0  0.1261
  H  H56  1  0.095400  0.452900  0.147300  1.0  0.0798
  H  H57  1  0.144300  0.599200  0.415800  1.0  0.1246
  H  H58  1  0.061100  0.438700  0.388400  1.0  0.0867
  H  H59  1  0.044500  0.139000  0.976600  1.0  0.1006
  H  H60  1  0.154900  0.933000  0.148600  1.0  0.0996
  H  H61  1  0.157500  0.893900  0.773100  1.0  0.3162
  H  H62  1  0.100300  0.020600  0.869400  1.0  0.1162
  H  H63  1  0.212700  0.820000  0.041200  1.0  0.1076
  H  H64  1  0.319300  0.611700  0.667600  1.0  0.1262
  H  H65  1  0.404600  0.452900  0.647300  1.0  0.0799
  H  H66  1  0.355700  0.599200  0.915800  1.0  0.1247
  H  H67  1  0.438900  0.438700  0.888400  1.0  0.0863
  H  H68  1  0.955500  0.139000  0.523400  1.0  0.0999
  H  H69  1  0.845100  0.933000  0.351400  1.0  0.0995
  H  H70  1  0.842500  0.893900  0.726900  1.0  0.3147
  H  H71  1  0.899700  0.020600  0.630600  1.0  0.1148
  H  H72  1  0.787300  0.820000  0.458800  1.0  0.1073
  H  H73  1  0.680700  0.611700  0.832400  1.0  0.1264
  H  H74  1  0.595400  0.452900  0.852700  1.0  0.0793
  H  H75  1  0.644300  0.599200  0.584200  1.0  0.1247
  H  H76  1  0.561100  0.438700  0.611600  1.0  0.0872
  C  C77  1  0.941390  0.874100  0.857520  1.0  0.6296
  C  C78  1  0.906020  0.952400  0.926420  1.0  -0.1361
  C  C79  1  0.922070  0.926000  0.010440  1.0  -0.0249
  C  C80  1  0.837650  0.091400  0.055530  1.0  -0.0307
  C  C81  1  0.798990  0.162300  0.121950  1.0  0.2745
  C  C82  1  0.728220  0.281300  0.188750  1.0  0.3516
  C  C83  1  0.855780  0.048400  0.907440  1.0  -0.04
  C  C84  1  0.672930  0.377000  0.205210  1.0  -0.0312
  C  C85  1  0.888380  0.996100  0.074680  1.0  -0.089
  C  C86  1  0.821350  0.116900  0.971800  1.0  -0.0802
  C  C87  1  0.657200  0.422000  0.286440  1.0  -0.1386
  C  C88  1  0.605790  0.518200  0.297920  1.0  0.1806
  C  C89  1  0.635620  0.430000  0.139470  1.0  -0.1237
  C  C90  1  0.585560  0.526300  0.156470  1.0  0.1828
  C  C91  1  0.058610  0.874100  0.642480  1.0  0.6307
  C  C92  1  0.093980  0.952400  0.573580  1.0  -0.137
  C  C93  1  0.077930  0.926000  0.489560  1.0  -0.0237
  C  C94  1  0.162350  0.091400  0.444470  1.0  -0.0326
  C  C95  1  0.201010  0.162300  0.378050  1.0  0.275
  C  C96  1  0.271780  0.281300  0.311250  1.0  0.3507
  C  C97  1  0.144220  0.048400  0.592560  1.0  -0.0421
  C  C98  1  0.327070  0.377000  0.294790  1.0  -0.0313
  C  C99  1  0.111620  0.996100  0.425320  1.0  -0.0844
  C  C100  1  0.178650  0.116900  0.528200  1.0  -0.0813
  C  C101  1  0.342800  0.422000  0.213560  1.0  -0.1384
  C  C102  1  0.394210  0.518200  0.202080  1.0  0.1816
  C  C103  1  0.364380  0.430000  0.360530  1.0  -0.1262
  C  C104  1  0.414440  0.526300  0.343530  1.0  0.1825
  C  C105  1  0.441390  0.874100  0.142480  1.0  0.63
  C  C106  1  0.406020  0.952400  0.073580  1.0  -0.1361
  C  C107  1  0.422070  0.926000  0.989560  1.0  -0.0251
  C  C108  1  0.337650  0.091400  0.944470  1.0  -0.0312
  C  C109  1  0.298990  0.162300  0.878050  1.0  0.2748
  C  C110  1  0.228220  0.281300  0.811250  1.0  0.3512
  C  C111  1  0.355780  0.048400  0.092560  1.0  -0.042
  C  C112  1  0.172930  0.377000  0.794790  1.0  -0.0311
  C  C113  1  0.388380  0.996100  0.925320  1.0  -0.0857
  C  C114  1  0.321350  0.116900  0.028200  1.0  -0.081
  C  C115  1  0.157200  0.422000  0.713560  1.0  -0.1389
  C  C116  1  0.105790  0.518200  0.702080  1.0  0.1811
  C  C117  1  0.135620  0.430000  0.860530  1.0  -0.1248
  C  C118  1  0.085560  0.526300  0.843530  1.0  0.1829
  C  C119  1  0.558610  0.874100  0.357520  1.0  0.6304
  C  C120  1  0.593980  0.952400  0.426420  1.0  -0.1374
  C  C121  1  0.577930  0.926000  0.510440  1.0  -0.0234
  C  C122  1  0.662350  0.091400  0.555530  1.0  -0.0319
  C  C123  1  0.701010  0.162300  0.621950  1.0  0.2748
  C  C124  1  0.771780  0.281300  0.688750  1.0  0.3511
  C  C125  1  0.644220  0.048400  0.407440  1.0  -0.04
  C  C126  1  0.827070  0.377000  0.705210  1.0  -0.0315
  C  C127  1  0.611620  0.996100  0.574680  1.0  -0.0879
  C  C128  1  0.678650  0.116900  0.471800  1.0  -0.0803
  C  C129  1  0.842800  0.422000  0.786440  1.0  -0.1385
  C  C130  1  0.894210  0.518200  0.797920  1.0  0.182
  C  C131  1  0.864380  0.430000  0.639470  1.0  -0.1254
  C  C132  1  0.914440  0.526300  0.656470  1.0  0.1823
  C  C133  1  0.558610  0.125900  0.857520  1.0  0.6303
  C  C134  1  0.593980  0.047600  0.926420  1.0  -0.137
  C  C135  1  0.577930  0.074000  0.010440  1.0  -0.0239
  C  C136  1  0.662350  0.908600  0.055530  1.0  -0.0321
  C  C137  1  0.701010  0.837700  0.121950  1.0  0.2749
  C  C138  1  0.771780  0.718700  0.188750  1.0  0.351
  C  C139  1  0.644220  0.951600  0.907440  1.0  -0.0396
  C  C140  1  0.827070  0.623000  0.205210  1.0  -0.0312
  C  C141  1  0.611620  0.003900  0.074680  1.0  -0.0889
  C  C142  1  0.678650  0.883100  0.971800  1.0  -0.0809
  C  C143  1  0.842800  0.578000  0.286440  1.0  -0.1383
  C  C144  1  0.894210  0.481800  0.297920  1.0  0.182
  C  C145  1  0.864380  0.570000  0.139470  1.0  -0.1256
  C  C146  1  0.914440  0.473700  0.156470  1.0  0.1818
  C  C147  1  0.441390  0.125900  0.642480  1.0  0.63
  C  C148  1  0.406020  0.047600  0.573580  1.0  -0.136
  C  C149  1  0.422070  0.074000  0.489560  1.0  -0.0252
  C  C150  1  0.337650  0.908600  0.444470  1.0  -0.0314
  C  C151  1  0.298990  0.837700  0.378050  1.0  0.2754
  C  C152  1  0.228220  0.718700  0.311250  1.0  0.3514
  C  C153  1  0.355780  0.951600  0.592560  1.0  -0.0419
  C  C154  1  0.172930  0.623000  0.294790  1.0  -0.0299
  C  C155  1  0.388380  0.003900  0.425320  1.0  -0.0869
  C  C156  1  0.321350  0.883100  0.528200  1.0  -0.0805
  C  C157  1  0.157200  0.578000  0.213560  1.0  -0.1386
  C  C158  1  0.105790  0.481800  0.202080  1.0  0.1812
  C  C159  1  0.135620  0.570000  0.360530  1.0  -0.1244
  C  C160  1  0.085560  0.473700  0.343530  1.0  0.1825
  C  C161  1  0.058610  0.125900  0.142480  1.0  0.6304
  C  C162  1  0.093980  0.047600  0.073580  1.0  -0.1368
  C  C163  1  0.077930  0.074000  0.989560  1.0  -0.0239
  C  C164  1  0.162350  0.908600  0.944470  1.0  -0.0329
  C  C165  1  0.201010  0.837700  0.878050  1.0  0.2755
  C  C166  1  0.271780  0.718700  0.811250  1.0  0.3508
  C  C167  1  0.144220  0.951600  0.092560  1.0  -0.042
  C  C168  1  0.327070  0.623000  0.794790  1.0  -0.031
  C  C169  1  0.111620  0.003900  0.925320  1.0  -0.0856
  C  C170  1  0.178650  0.883100  0.028200  1.0  -0.081
  C  C171  1  0.342800  0.578000  0.713560  1.0  -0.1383
  C  C172  1  0.394210  0.481800  0.702080  1.0  0.1817
  C  C173  1  0.364380  0.570000  0.860530  1.0  -0.1256
  C  C174  1  0.414440  0.473700  0.843530  1.0  0.1822
  C  C175  1  0.941390  0.125900  0.357520  1.0  0.6296
  C  C176  1  0.906020  0.047600  0.426420  1.0  -0.1358
  C  C177  1  0.922070  0.074000  0.510440  1.0  -0.0253
  C  C178  1  0.837650  0.908600  0.555530  1.0  -0.031
  C  C179  1  0.798990  0.837700  0.621950  1.0  0.2746
  C  C180  1  0.728220  0.718700  0.688750  1.0  0.3516
  C  C181  1  0.855780  0.951600  0.407440  1.0  -0.0398
  C  C182  1  0.672930  0.623000  0.705210  1.0  -0.0299
  C  C183  1  0.888380  0.003900  0.574680  1.0  -0.0899
  C  C184  1  0.821350  0.883100  0.471800  1.0  -0.0803
  C  C185  1  0.657200  0.578000  0.786440  1.0  -0.1387
  C  C186  1  0.605790  0.481800  0.797920  1.0  0.1805
  C  C187  1  0.635620  0.570000  0.639470  1.0  -0.1241
  C  C188  1  0.585560  0.473700  0.656470  1.0  0.1821
  N  N189  1  0.570520  0.571600  0.234780  1.0  -0.3306
  N  N190  1  0.746720  0.243700  0.109090  1.0  -0.4787
  N  N191  1  0.765650  0.229000  0.249860  1.0  -0.3925
  N  N192  1  0.810790  0.153300  0.205010  1.0  -0.0816
  N  N193  1  0.429480  0.571600  0.265220  1.0  -0.3313
  N  N194  1  0.253280  0.243700  0.390910  1.0  -0.4806
  N  N195  1  0.234350  0.229000  0.250140  1.0  -0.3916
  N  N196  1  0.189210  0.153300  0.294990  1.0  -0.0799
  N  N197  1  0.070520  0.571600  0.765220  1.0  -0.3307
  N  N198  1  0.246720  0.243700  0.890910  1.0  -0.4806
  N  N199  1  0.265650  0.229000  0.750140  1.0  -0.3907
  N  N200  1  0.310790  0.153300  0.794990  1.0  -0.0809
  N  N201  1  0.929480  0.571600  0.734780  1.0  -0.3312
  N  N202  1  0.753280  0.243700  0.609090  1.0  -0.4792
  N  N203  1  0.734350  0.229000  0.749860  1.0  -0.3934
  N  N204  1  0.689210  0.153300  0.705010  1.0  -0.0809
  N  N205  1  0.929480  0.428400  0.234780  1.0  -0.3307
  N  N206  1  0.753280  0.756300  0.109090  1.0  -0.4792
  N  N207  1  0.734350  0.771000  0.249860  1.0  -0.3931
  N  N208  1  0.689210  0.846700  0.205010  1.0  -0.0807
  N  N209  1  0.070520  0.428400  0.265220  1.0  -0.331
  N  N210  1  0.246720  0.756300  0.390910  1.0  -0.4796
  N  N211  1  0.265650  0.771000  0.250140  1.0  -0.3911
  N  N212  1  0.310790  0.846700  0.294990  1.0  -0.0809
  N  N213  1  0.429480  0.428400  0.765220  1.0  -0.3309
  N  N214  1  0.253280  0.756300  0.890910  1.0  -0.4796
  N  N215  1  0.234350  0.771000  0.750140  1.0  -0.3919
  N  N216  1  0.189210  0.846700  0.794990  1.0  -0.08
  N  N217  1  0.570520  0.428400  0.734780  1.0  -0.3308
  N  N218  1  0.746720  0.756300  0.609090  1.0  -0.4789
  N  N219  1  0.765650  0.771000  0.749860  1.0  -0.3923
  N  N220  1  0.810790  0.846700  0.705010  1.0  -0.0814
  O  O221  1  0.983530  0.775500  0.875870  1.0  -0.5601
  O  O222  1  0.929140  0.903700  0.780630  1.0  -0.5814
  O  O223  1  0.016470  0.775500  0.624130  1.0  -0.5598
  O  O224  1  0.070860  0.903700  0.719370  1.0  -0.5822
  O  O225  1  0.483530  0.775500  0.124130  1.0  -0.5596
  O  O226  1  0.429140  0.903700  0.219370  1.0  -0.5812
  O  O227  1  0.516470  0.775500  0.375870  1.0  -0.5605
  O  O228  1  0.570860  0.903700  0.280630  1.0  -0.5823
  O  O229  1  0.516470  0.224500  0.875870  1.0  -0.5594
  O  O230  1  0.570860  0.096300  0.780630  1.0  -0.5825
  O  O231  1  0.483530  0.224500  0.624130  1.0  -0.5586
  O  O232  1  0.429140  0.096300  0.719370  1.0  -0.5816
  O  O233  1  0.016470  0.224500  0.124130  1.0  -0.5583
  O  O234  1  0.070860  0.096300  0.219370  1.0  -0.582
  O  O235  1  0.983530  0.224500  0.375870  1.0  -0.5601
  O  O236  1  0.929140  0.096300  0.280630  1.0  -0.582
