# generated using pymatgen
data_Ba3Fe2H4(C6O13)2
_symmetry_space_group_name_H-M   'P 1'
_cell_length_a   10.95390000
_cell_length_b   17.44920000
_cell_length_c   18.70000000
_cell_angle_alpha   88.86800000
_cell_angle_beta   86.16000000
_cell_angle_gamma   76.46200000
_symmetry_Int_Tables_number   1
_chemical_formula_structural   Ba3Fe2H4(C6O13)2
_chemical_formula_sum   'Ba12 Fe8 H16 C48 O104'
_cell_volume   3467.11476622
_cell_formula_units_Z   4
loop_
 _symmetry_equiv_pos_site_id
 _symmetry_equiv_pos_as_xyz
  1  'x, y, z'
loop_
 _atom_site_type_symbol
 _atom_site_label
 _atom_site_symmetry_multiplicity
 _atom_site_fract_x
 _atom_site_fract_y
 _atom_site_fract_z
 _atom_site_occupancy
 _atom_site_charge
  Ba  Ba1  1  0.401670  0.392940  0.490750  1.0  1.5878
  Ba  Ba2  1  0.441300  0.464730  0.245640  1.0  1.6828
  Ba  Ba3  1  0.142370  0.644610  0.032200  1.0  1.6754
  Ba  Ba4  1  0.801560  0.096000  0.984440  1.0  1.5899
  Ba  Ba5  1  0.113440  0.958740  0.260780  1.0  1.6696
  Ba  Ba6  1  0.200440  0.177340  0.459780  1.0  1.6381
  Ba  Ba7  1  0.598330  0.607060  0.509250  1.0  1.587
  Ba  Ba8  1  0.558700  0.535270  0.754360  1.0  1.6817
  Ba  Ba9  1  0.857630  0.355390  0.967800  1.0  1.6747
  Ba  Ba10  1  0.198440  0.904000  0.015560  1.0  1.5897
  Ba  Ba11  1  0.886560  0.041260  0.739220  1.0  1.6699
  Ba  Ba12  1  0.799560  0.822660  0.540220  1.0  1.6384
  Fe  Fe13  1  0.108730  0.636000  0.365850  1.0  1.0986
  Fe  Fe14  1  0.395480  0.320550  0.824030  1.0  1.0226
  Fe  Fe15  1  0.263400  0.145000  0.127770  1.0  1.1005
  Fe  Fe16  1  0.745370  0.142790  0.322000  1.0  1.0893
  Fe  Fe17  1  0.891270  0.364000  0.634150  1.0  1.0991
  Fe  Fe18  1  0.604520  0.679450  0.175970  1.0  1.0223
  Fe  Fe19  1  0.736600  0.855000  0.872230  1.0  1.1009
  Fe  Fe20  1  0.254630  0.857210  0.678000  1.0  1.0878
  H  H21  1  0.210900  0.426300  0.344000  1.0  0.2528
  H  H22  1  0.289800  0.343200  0.343400  1.0  0.3677
  H  H23  1  0.651300  0.390100  0.357000  1.0  0.4048
  H  H24  1  0.577300  0.327300  0.355900  1.0  0.3484
  H  H25  1  0.638700  0.036600  0.849300  1.0  0.2926
  H  H26  1  0.624400  0.124300  0.844100  1.0  0.3102
  H  H27  1  0.953200  0.170600  0.841000  1.0  0.3362
  H  H28  1  0.047700  0.095800  0.857800  1.0  0.3633
  H  H29  1  0.789100  0.573700  0.656000  1.0  0.2531
  H  H30  1  0.710200  0.656800  0.656600  1.0  0.3645
  H  H31  1  0.348700  0.609900  0.643000  1.0  0.4007
  H  H32  1  0.422700  0.672700  0.644100  1.0  0.3491
  H  H33  1  0.361300  0.963400  0.150700  1.0  0.2931
  H  H34  1  0.375600  0.875700  0.155900  1.0  0.3103
  H  H35  1  0.046800  0.829400  0.159000  1.0  0.3355
  H  H36  1  0.952300  0.904200  0.142200  1.0  0.3672
  C  C37  1  0.298900  0.591400  0.460900  1.0  0.6204
  C  C38  1  0.297500  0.678700  0.440000  1.0  0.5457
  C  C39  1  0.893600  0.649400  0.457400  1.0  0.6064
  C  C40  1  0.901900  0.573800  0.413400  1.0  0.5535
  C  C41  1  0.198100  0.615900  0.220400  1.0  0.5811
  C  C42  1  0.083100  0.687100  0.223500  1.0  0.6161
  C  C43  1  0.452400  0.386600  0.689800  1.0  0.5937
  C  C44  1  0.392300  0.316700  0.674400  1.0  0.6146
  C  C45  1  0.623300  0.270900  0.892000  1.0  0.6165
  C  C46  1  0.548800  0.343500  0.931600  1.0  0.6116
  C  C47  1  0.146200  0.384300  0.874800  1.0  0.5747
  C  C48  1  0.184500  0.298300  0.903500  1.0  0.6304
  C  C49  1  0.039900  0.179300  0.054200  1.0  0.6017
  C  C50  1  0.110300  0.095900  0.032000  1.0  0.6524
  C  C51  1  0.471600  0.152100  0.036700  1.0  0.5981
  C  C52  1  0.513500  0.075800  0.081200  1.0  0.5586
  C  C53  1  0.244100  0.205200  0.268600  1.0  0.6002
  C  C54  1  0.184700  0.132500  0.274200  1.0  0.5627
  C  C55  1  0.740900  0.155500  0.171900  1.0  0.5704
  C  C56  1  0.854100  0.085700  0.186700  1.0  0.5695
  C  C57  1  0.513700  0.112300  0.376700  1.0  0.5638
  C  C58  1  0.511300  0.197200  0.400500  1.0  0.6398
  C  C59  1  0.914400  0.216700  0.381900  1.0  0.5804
  C  C60  1  0.911800  0.143200  0.428800  1.0  0.5522
  C  C61  1  0.701100  0.408600  0.539100  1.0  0.62
  C  C62  1  0.702500  0.321300  0.560000  1.0  0.5454
  C  C63  1  0.106400  0.350600  0.542600  1.0  0.6078
  C  C64  1  0.098100  0.426200  0.586600  1.0  0.5486
  C  C65  1  0.801900  0.384100  0.779600  1.0  0.5823
  C  C66  1  0.916900  0.312900  0.776500  1.0  0.6166
  C  C67  1  0.547600  0.613400  0.310200  1.0  0.5937
  C  C68  1  0.607700  0.683300  0.325600  1.0  0.6157
  C  C69  1  0.376700  0.729100  0.108000  1.0  0.617
  C  C70  1  0.451200  0.656500  0.068400  1.0  0.6132
  C  C71  1  0.853800  0.615700  0.125200  1.0  0.5766
  C  C72  1  0.815500  0.701700  0.096500  1.0  0.6293
  C  C73  1  0.960100  0.820700  0.945800  1.0  0.5999
  C  C74  1  0.889700  0.904100  0.968000  1.0  0.6527
  C  C75  1  0.528400  0.847900  0.963300  1.0  0.5969
  C  C76  1  0.486500  0.924200  0.918800  1.0  0.5602
  C  C77  1  0.755900  0.794800  0.731400  1.0  0.5994
  C  C78  1  0.815300  0.867500  0.725800  1.0  0.5609
  C  C79  1  0.259100  0.844500  0.828100  1.0  0.5714
  C  C80  1  0.145900  0.914300  0.813300  1.0  0.5706
  C  C81  1  0.486300  0.887700  0.623300  1.0  0.5633
  C  C82  1  0.488700  0.802800  0.599500  1.0  0.6435
  C  C83  1  0.085600  0.783300  0.618100  1.0  0.5814
  C  C84  1  0.088200  0.856800  0.571200  1.0  0.5536
  O  O85  1  0.219500  0.562000  0.431800  1.0  -0.5799
  O  O86  1  0.378000  0.555300  0.501300  1.0  -0.6369
  O  O87  1  0.219700  0.707200  0.392600  1.0  -0.5449
  O  O88  1  0.369700  0.711700  0.467400  1.0  -0.5438
  O  O89  1  0.973900  0.689400  0.438900  1.0  -0.6124
  O  O90  1  0.811700  0.667000  0.507100  1.0  -0.635
  O  O91  1  0.993700  0.559300  0.366300  1.0  -0.5334
  O  O92  1  0.821300  0.536300  0.425600  1.0  -0.5539
  O  O93  1  0.221600  0.582900  0.282200  1.0  -0.6196
  O  O94  1  0.258500  0.595600  0.164200  1.0  -0.5936
  O  O95  1  0.033400  0.706000  0.286200  1.0  -0.5232
  O  O96  1  0.049700  0.720200  0.166600  1.0  -0.5948
  O  O97  1  0.472200  0.393300  0.755300  1.0  -0.6182
  O  O98  1  0.476400  0.429700  0.640100  1.0  -0.5613
  O  O99  1  0.374600  0.275200  0.728800  1.0  -0.5439
  O  O100  1  0.367500  0.306000  0.612700  1.0  -0.5785
  O  O101  1  0.567700  0.248000  0.840400  1.0  -0.5969
  O  O102  1  0.729700  0.238000  0.909700  1.0  -0.6164
  O  O103  1  0.440200  0.372200  0.910000  1.0  -0.5327
  O  O104  1  0.599000  0.366200  0.981400  1.0  -0.5876
  O  O105  1  0.230200  0.405300  0.831100  1.0  -0.4973
  O  O106  1  0.040200  0.428000  0.895300  1.0  -0.6092
  O  O107  1  0.292300  0.256300  0.878600  1.0  -0.5337
  O  O108  1  0.112700  0.273200  0.945400  1.0  -0.5814
  O  O109  1  0.094600  0.211900  0.099200  1.0  -0.5449
  O  O110  1  0.937400  0.207900  0.029000  1.0  -0.6213
  O  O111  1  0.211700  0.068200  0.062700  1.0  -0.6122
  O  O112  1  0.066600  0.059300  0.988300  1.0  -0.6556
  O  O113  1  0.361500  0.193400  0.054200  1.0  -0.5425
  O  O114  1  0.544700  0.168000  0.989200  1.0  -0.5843
  O  O115  1  0.429900  0.064100  0.129400  1.0  -0.5683
  O  O116  1  0.619100  0.032300  0.069300  1.0  -0.5657
  O  O117  1  0.186700  0.097500  0.213700  1.0  -0.6036
  O  O118  1  0.144200  0.111400  0.331700  1.0  -0.613
  O  O119  1  0.283200  0.219600  0.204800  1.0  -0.551
  O  O120  1  0.253300  0.240700  0.322900  1.0  -0.5832
  O  O121  1  0.682600  0.188300  0.228600  1.0  -0.5405
  O  O122  1  0.714500  0.176000  0.110500  1.0  -0.5495
  O  O123  1  0.866600  0.068500  0.252900  1.0  -0.6218
  O  O124  1  0.922300  0.053500  0.136200  1.0  -0.5092
  O  O125  1  0.617300  0.077700  0.342000  1.0  -0.5506
  O  O126  1  0.421700  0.084700  0.389800  1.0  -0.5827
  O  O127  1  0.605900  0.222600  0.374500  1.0  -0.6084
  O  O128  1  0.422900  0.234900  0.438600  1.0  -0.6085
  O  O129  1  0.850100  0.223200  0.325800  1.0  -0.5523
  O  O130  1  0.973400  0.264400  0.399700  1.0  -0.5638
  O  O131  1  0.838900  0.101200  0.408400  1.0  -0.5246
  O  O132  1  0.976700  0.130100  0.480500  1.0  -0.5829
  O  O133  1  0.294200  0.396200  0.351100  1.0  -0.8549
  O  O134  1  0.567100  0.382700  0.360400  1.0  -0.8203
  O  O135  1  0.684900  0.076400  0.851900  1.0  -0.8562
  O  O136  1  0.959200  0.117600  0.855900  1.0  -0.8482
  O  O137  1  0.780500  0.438000  0.568200  1.0  -0.5803
  O  O138  1  0.622000  0.444700  0.498700  1.0  -0.6369
  O  O139  1  0.780300  0.292800  0.607400  1.0  -0.5446
  O  O140  1  0.630300  0.288300  0.532600  1.0  -0.5408
  O  O141  1  0.026100  0.310600  0.561100  1.0  -0.6145
  O  O142  1  0.188300  0.333000  0.492900  1.0  -0.6368
  O  O143  1  0.006300  0.440700  0.633700  1.0  -0.5332
  O  O144  1  0.178700  0.463700  0.574400  1.0  -0.5509
  O  O145  1  0.778400  0.417100  0.717800  1.0  -0.6202
  O  O146  1  0.741500  0.404400  0.835800  1.0  -0.5943
  O  O147  1  0.966600  0.294000  0.713800  1.0  -0.5214
  O  O148  1  0.950300  0.279800  0.833400  1.0  -0.5942
  O  O149  1  0.527800  0.606700  0.244700  1.0  -0.6186
  O  O150  1  0.523600  0.570300  0.359900  1.0  -0.5596
  O  O151  1  0.625400  0.724800  0.271200  1.0  -0.5426
  O  O152  1  0.632500  0.694000  0.387300  1.0  -0.5769
  O  O153  1  0.432300  0.752000  0.159600  1.0  -0.5969
  O  O154  1  0.270300  0.762000  0.090300  1.0  -0.6143
  O  O155  1  0.559800  0.627800  0.090000  1.0  -0.532
  O  O156  1  0.401000  0.633800  0.018600  1.0  -0.5859
  O  O157  1  0.769800  0.594700  0.168900  1.0  -0.5012
  O  O158  1  0.959800  0.572000  0.104700  1.0  -0.6071
  O  O159  1  0.707700  0.743700  0.121400  1.0  -0.5347
  O  O160  1  0.887300  0.726800  0.054600  1.0  -0.58
  O  O161  1  0.905400  0.788100  0.900800  1.0  -0.5452
  O  O162  1  0.062600  0.792100  0.971000  1.0  -0.6189
  O  O163  1  0.788300  0.931800  0.937300  1.0  -0.6145
  O  O164  1  0.933400  0.940700  0.011700  1.0  -0.6534
  O  O165  1  0.638500  0.806600  0.945800  1.0  -0.542
  O  O166  1  0.455300  0.832000  0.010800  1.0  -0.5817
  O  O167  1  0.570100  0.935900  0.870600  1.0  -0.5694
  O  O168  1  0.380900  0.967700  0.930700  1.0  -0.5674
  O  O169  1  0.813300  0.902500  0.786300  1.0  -0.6057
  O  O170  1  0.855800  0.888600  0.668300  1.0  -0.6141
  O  O171  1  0.716800  0.780400  0.795200  1.0  -0.5504
  O  O172  1  0.746700  0.759300  0.677100  1.0  -0.5822
  O  O173  1  0.317400  0.811700  0.771400  1.0  -0.5383
  O  O174  1  0.285500  0.824000  0.889500  1.0  -0.5491
  O  O175  1  0.133400  0.931500  0.747100  1.0  -0.6217
  O  O176  1  0.077700  0.946500  0.863800  1.0  -0.5087
  O  O177  1  0.382700  0.922300  0.658000  1.0  -0.5503
  O  O178  1  0.578300  0.915300  0.610200  1.0  -0.5844
  O  O179  1  0.394100  0.777400  0.625500  1.0  -0.609
  O  O180  1  0.577100  0.765100  0.561400  1.0  -0.6098
  O  O181  1  0.149900  0.776800  0.674200  1.0  -0.5504
  O  O182  1  0.026600  0.735600  0.600300  1.0  -0.5603
  O  O183  1  0.161100  0.898800  0.591600  1.0  -0.5264
  O  O184  1  0.023300  0.869900  0.519500  1.0  -0.5823
  O  O185  1  0.705800  0.603800  0.648900  1.0  -0.8606
  O  O186  1  0.432900  0.617300  0.639600  1.0  -0.8212
  O  O187  1  0.315100  0.923600  0.148100  1.0  -0.8602
  O  O188  1  0.040800  0.882400  0.144100  1.0  -0.8456
