# generated using pymatgen
data_Mn2H30C50S(N3O4)2
_symmetry_space_group_name_H-M   'P 1'
_cell_length_a   14.42400000
_cell_length_b   17.79800000
_cell_length_c   17.19500000
_cell_angle_alpha   90.00000000
_cell_angle_beta   90.00000000
_cell_angle_gamma   90.00000000
_symmetry_Int_Tables_number   1
_chemical_formula_structural   Mn2H30C50S(N3O4)2
_chemical_formula_sum   'Mn8 H120 C200 S4 N24 O32'
_cell_volume   4414.27206264
_cell_formula_units_Z   4
loop_
 _symmetry_equiv_pos_site_id
 _symmetry_equiv_pos_as_xyz
  1  'x, y, z'
loop_
 _atom_site_type_symbol
 _atom_site_label
 _atom_site_symmetry_multiplicity
 _atom_site_fract_x
 _atom_site_fract_y
 _atom_site_fract_z
 _atom_site_occupancy
 _atom_site_charge
  Mn  Mn1  1  0.997990  0.836400  0.751700  1.0  1.0369
  Mn  Mn2  1  0.507760  0.326360  0.164250  1.0  1.0211
  Mn  Mn3  1  0.497990  0.163600  0.751700  1.0  1.0379
  Mn  Mn4  1  0.007760  0.673640  0.164250  1.0  1.0192
  Mn  Mn5  1  0.002010  0.163600  0.251700  1.0  1.0373
  Mn  Mn6  1  0.492240  0.673640  0.664250  1.0  1.0192
  Mn  Mn7  1  0.502010  0.836400  0.251700  1.0  1.0366
  Mn  Mn8  1  0.992240  0.326360  0.664250  1.0  1.0185
  H  H9  1  0.710200  0.702600  0.862700  1.0  0.1113
  H  H10  1  0.951200  0.622000  0.945100  1.0  0.1134
  H  H11  1  0.646600  0.795300  0.792100  1.0  0.1176
  H  H12  1  0.591300  0.889800  0.712300  1.0  0.1148
  H  H13  1  0.697900  0.965500  0.646100  1.0  0.1123
  H  H14  1  0.854900  0.940600  0.658500  1.0  0.0823
  H  H15  1  0.097200  0.643100  0.958300  1.0  0.1163
  H  H16  1  0.254400  0.665900  0.959500  1.0  0.0957
  H  H17  1  0.315100  0.761000  0.880400  1.0  0.1205
  H  H18  1  0.216300  0.825700  0.799600  1.0  0.081
  H  H19  1  0.647100  0.597500  0.902000  1.0  0.1034
  H  H20  1  0.571300  0.508800  0.975000  1.0  0.0948
  H  H21  1  0.803500  0.468800  0.095300  1.0  0.0978
  H  H22  1  0.879100  0.559000  0.023500  1.0  0.116
  H  H23  1  0.205900  0.220300  0.041300  1.0  0.12
  H  H24  1  0.434900  0.102300  0.983300  1.0  0.1045
  H  H25  1  0.150500  0.307200  0.114600  1.0  0.1111
  H  H26  1  0.100700  0.402500  0.197500  1.0  0.1104
  H  H27  1  0.210100  0.472700  0.265000  1.0  0.1281
  H  H28  1  0.363800  0.444100  0.251500  1.0  0.0809
  H  H29  1  0.581300  0.092400  0.996600  1.0  0.1191
  H  H30  1  0.736400  0.076900  0.029700  1.0  0.1022
  H  H31  1  0.804200  0.158700  0.118400  1.0  0.1158
  H  H32  1  0.715800  0.255700  0.167500  1.0  0.0679
  H  H33  1  0.129200  0.120900  0.010200  1.0  0.1016
  H  H34  1  0.036800  0.041300  0.937100  1.0  0.1058
  H  H35  1  0.262000  0.974500  0.817900  1.0  0.113
  H  H36  1  0.353300  0.052500  0.891800  1.0  0.1038
  H  H37  1  0.069000  0.618400  0.572300  1.0  0.1145
  H  H38  1  0.072300  0.579300  0.436200  1.0  0.11
  H  H39  1  0.210200  0.297400  0.862700  1.0  0.1112
  H  H40  1  0.451200  0.378000  0.945100  1.0  0.1137
  H  H41  1  0.146600  0.204700  0.792100  1.0  0.1184
  H  H42  1  0.091300  0.110200  0.712300  1.0  0.1146
  H  H43  1  0.197900  0.034500  0.646100  1.0  0.1114
  H  H44  1  0.354900  0.059400  0.658500  1.0  0.082
  H  H45  1  0.597200  0.356900  0.958300  1.0  0.1166
  H  H46  1  0.754400  0.334100  0.959500  1.0  0.096
  H  H47  1  0.815100  0.239000  0.880400  1.0  0.1205
  H  H48  1  0.716300  0.174300  0.799600  1.0  0.0813
  H  H49  1  0.147100  0.402500  0.902000  1.0  0.1013
  H  H50  1  0.071300  0.491200  0.975000  1.0  0.0951
  H  H51  1  0.303500  0.531200  0.095300  1.0  0.0976
  H  H52  1  0.379100  0.441000  0.023500  1.0  0.1159
  H  H53  1  0.705900  0.779700  0.041300  1.0  0.1196
  H  H54  1  0.934900  0.897700  0.983300  1.0  0.1044
  H  H55  1  0.650500  0.692800  0.114600  1.0  0.112
  H  H56  1  0.600700  0.597500  0.197500  1.0  0.1101
  H  H57  1  0.710100  0.527300  0.265000  1.0  0.1284
  H  H58  1  0.863800  0.555900  0.251500  1.0  0.0806
  H  H59  1  0.081300  0.907600  0.996600  1.0  0.1193
  H  H60  1  0.236400  0.923100  0.029700  1.0  0.1023
  H  H61  1  0.304200  0.841300  0.118400  1.0  0.1161
  H  H62  1  0.215800  0.744300  0.167500  1.0  0.0685
  H  H63  1  0.629200  0.879100  0.010200  1.0  0.1018
  H  H64  1  0.536800  0.958700  0.937100  1.0  0.1056
  H  H65  1  0.762000  0.025500  0.817900  1.0  0.1121
  H  H66  1  0.853300  0.947500  0.891800  1.0  0.1041
  H  H67  1  0.569000  0.381600  0.572300  1.0  0.1142
  H  H68  1  0.572300  0.420700  0.436200  1.0  0.1096
  H  H69  1  0.289800  0.297400  0.362700  1.0  0.1116
  H  H70  1  0.048800  0.378000  0.445100  1.0  0.1132
  H  H71  1  0.353400  0.204700  0.292100  1.0  0.1177
  H  H72  1  0.408700  0.110200  0.212300  1.0  0.1154
  H  H73  1  0.302100  0.034500  0.146100  1.0  0.113
  H  H74  1  0.145100  0.059400  0.158500  1.0  0.0814
  H  H75  1  0.902800  0.356900  0.458300  1.0  0.1168
  H  H76  1  0.745600  0.334100  0.459500  1.0  0.096
  H  H77  1  0.684900  0.239000  0.380400  1.0  0.1215
  H  H78  1  0.783700  0.174300  0.299600  1.0  0.0811
  H  H79  1  0.352900  0.402500  0.402000  1.0  0.1039
  H  H80  1  0.428700  0.491200  0.475000  1.0  0.0949
  H  H81  1  0.196500  0.531200  0.595300  1.0  0.097
  H  H82  1  0.120900  0.441000  0.523500  1.0  0.1158
  H  H83  1  0.794100  0.779700  0.541300  1.0  0.121
  H  H84  1  0.565100  0.897700  0.483300  1.0  0.1045
  H  H85  1  0.849500  0.692800  0.614600  1.0  0.1112
  H  H86  1  0.899300  0.597500  0.697500  1.0  0.1085
  H  H87  1  0.789900  0.527300  0.765000  1.0  0.1284
  H  H88  1  0.636200  0.555900  0.751500  1.0  0.0808
  H  H89  1  0.418700  0.907600  0.496600  1.0  0.1192
  H  H90  1  0.263600  0.923100  0.529700  1.0  0.1024
  H  H91  1  0.195800  0.841300  0.618400  1.0  0.117
  H  H92  1  0.284200  0.744300  0.667500  1.0  0.0714
  H  H93  1  0.870800  0.879100  0.510200  1.0  0.1021
  H  H94  1  0.963200  0.958700  0.437100  1.0  0.1061
  H  H95  1  0.738000  0.025500  0.317900  1.0  0.1133
  H  H96  1  0.646700  0.947500  0.391800  1.0  0.1042
  H  H97  1  0.931000  0.381600  0.072300  1.0  0.1164
  H  H98  1  0.927700  0.420700  0.936200  1.0  0.1094
  H  H99  1  0.789800  0.702600  0.362700  1.0  0.1115
  H  H100  1  0.548800  0.622000  0.445100  1.0  0.1126
  H  H101  1  0.853400  0.795300  0.292100  1.0  0.1176
  H  H102  1  0.908700  0.889800  0.212300  1.0  0.1158
  H  H103  1  0.802100  0.965500  0.146100  1.0  0.1138
  H  H104  1  0.645100  0.940600  0.158500  1.0  0.0816
  H  H105  1  0.402800  0.643100  0.458300  1.0  0.1165
  H  H106  1  0.245600  0.665900  0.459500  1.0  0.0954
  H  H107  1  0.184900  0.761000  0.380400  1.0  0.1216
  H  H108  1  0.283700  0.825700  0.299600  1.0  0.0812
  H  H109  1  0.852900  0.597500  0.402000  1.0  0.1039
  H  H110  1  0.928700  0.508800  0.475000  1.0  0.0948
  H  H111  1  0.696500  0.468800  0.595300  1.0  0.097
  H  H112  1  0.620900  0.559000  0.523500  1.0  0.1153
  H  H113  1  0.294100  0.220300  0.541300  1.0  0.1211
  H  H114  1  0.065100  0.102300  0.483300  1.0  0.1048
  H  H115  1  0.349500  0.307200  0.614600  1.0  0.1113
  H  H116  1  0.399300  0.402500  0.697500  1.0  0.1087
  H  H117  1  0.289900  0.472700  0.765000  1.0  0.1279
  H  H118  1  0.136200  0.444100  0.751500  1.0  0.0808
  H  H119  1  0.918700  0.092400  0.496600  1.0  0.1191
  H  H120  1  0.763600  0.076900  0.529700  1.0  0.1019
  H  H121  1  0.695800  0.158700  0.618400  1.0  0.1165
  H  H122  1  0.784200  0.255700  0.667500  1.0  0.0709
  H  H123  1  0.370800  0.120900  0.510200  1.0  0.1023
  H  H124  1  0.463200  0.041300  0.437100  1.0  0.1059
  H  H125  1  0.238000  0.974500  0.317900  1.0  0.113
  H  H126  1  0.146700  0.052500  0.391800  1.0  0.1027
  H  H127  1  0.431000  0.618400  0.072300  1.0  0.1167
  H  H128  1  0.427700  0.579300  0.936200  1.0  0.1096
  C  C129  1  0.824500  0.757000  0.824200  1.0  0.1727
  C  C130  1  0.774600  0.703300  0.865700  1.0  -0.0985
  C  C131  1  0.820200  0.650700  0.911600  1.0  0.0614
  C  C132  1  0.917800  0.656000  0.915200  1.0  -0.1153
  C  C133  1  0.963800  0.711600  0.874300  1.0  0.1916
  C  C134  1  0.783400  0.815000  0.772700  1.0  0.1592
  C  C135  1  0.687700  0.825900  0.765100  1.0  -0.1183
  C  C136  1  0.654700  0.881800  0.717700  1.0  -0.0963
  C  C137  1  0.718100  0.926500  0.677800  1.0  -0.0874
  C  C138  1  0.812700  0.911600  0.686300  1.0  0.1726
  C  C139  1  0.065400  0.722200  0.878000  1.0  0.1648
  C  C140  1  0.122400  0.680200  0.926600  1.0  -0.1307
  C  C141  1  0.215600  0.693900  0.927500  1.0  -0.0704
  C  C142  1  0.252100  0.750100  0.880000  1.0  -0.0987
  C  C143  1  0.192300  0.789000  0.832500  1.0  0.1653
  C  C144  1  0.770700  0.589800  0.955900  1.0  -0.0334
  C  C145  1  0.678700  0.572700  0.941500  1.0  -0.1177
  C  C146  1  0.633300  0.519000  0.985400  1.0  -0.0802
  C  C147  1  0.678000  0.479800  0.044900  1.0  -0.1239
  C  C148  1  0.771200  0.495200  0.057400  1.0  -0.0878
  C  C149  1  0.816800  0.549300  0.013900  1.0  -0.1186
  C  C150  1  0.628500  0.424800  0.095600  1.0  0.683
  C  C151  1  0.326100  0.257700  0.089200  1.0  0.2103
  C  C152  1  0.269300  0.211200  0.044400  1.0  -0.1056
  C  C153  1  0.309300  0.150100  0.003700  1.0  0.0639
  C  C154  1  0.405500  0.141200  0.009800  1.0  -0.088
  C  C155  1  0.457200  0.190600  0.055600  1.0  0.1521
  C  C156  1  0.287300  0.319600  0.138200  1.0  0.1702
  C  C157  1  0.193100  0.334900  0.143300  1.0  -0.13
  C  C158  1  0.163600  0.392100  0.192200  1.0  -0.0721
  C  C159  1  0.228400  0.433500  0.232600  1.0  -0.1767
  C  C160  1  0.320500  0.415700  0.224200  1.0  0.1784
  C  C161  1  0.559200  0.181100  0.067000  1.0  0.1745
  C  C162  1  0.609200  0.124300  0.032400  1.0  -0.1339
  C  C163  1  0.701800  0.115500  0.051800  1.0  -0.0618
  C  C164  1  0.742500  0.164200  0.103800  1.0  -0.1241
  C  C165  1  0.688300  0.221700  0.133600  1.0  0.1873
  C  C166  1  0.251000  0.097300  0.958100  1.0  0.0088
  C  C167  1  0.156000  0.092100  0.971100  1.0  -0.0953
  C  C168  1  0.100000  0.044500  0.926900  1.0  -0.066
  C  C169  1  0.139000  0.001800  0.867300  1.0  -0.1575
  C  C170  1  0.234900  0.004500  0.855900  1.0  -0.0835
  C  C171  1  0.289600  0.051400  0.900300  1.0  -0.1038
  C  C172  1  0.078400  0.951500  0.818800  1.0  0.6574
  C  C173  1  0.027800  0.724300  0.539200  1.0  -0.1916
  C  C174  1  0.054000  0.649700  0.530900  1.0  -0.0518
  C  C175  1  0.055000  0.627100  0.452500  1.0  -0.0783
  C  C176  1  0.028000  0.682600  0.402800  1.0  -0.1418
  C  C177  1  0.019500  0.768400  0.611800  1.0  0.69
  C  C178  1  0.020400  0.680600  0.316000  1.0  0.6678
  C  C179  1  0.324500  0.243000  0.824200  1.0  0.1721
  C  C180  1  0.274600  0.296700  0.865700  1.0  -0.0978
  C  C181  1  0.320200  0.349300  0.911600  1.0  0.0622
  C  C182  1  0.417800  0.344000  0.915200  1.0  -0.1151
  C  C183  1  0.463800  0.288400  0.874300  1.0  0.192
  C  C184  1  0.283400  0.185000  0.772700  1.0  0.1597
  C  C185  1  0.187700  0.174100  0.765100  1.0  -0.1177
  C  C186  1  0.154700  0.118200  0.717700  1.0  -0.0972
  C  C187  1  0.218100  0.073500  0.677800  1.0  -0.0895
  C  C188  1  0.312700  0.088400  0.686300  1.0  0.1726
  C  C189  1  0.565400  0.277800  0.878000  1.0  0.1684
  C  C190  1  0.622400  0.319800  0.926600  1.0  -0.1289
  C  C191  1  0.715600  0.306100  0.927500  1.0  -0.0715
  C  C192  1  0.752100  0.249900  0.880000  1.0  -0.0995
  C  C193  1  0.692300  0.211000  0.832500  1.0  0.1649
  C  C194  1  0.270700  0.410200  0.955900  1.0  -0.0334
  C  C195  1  0.178700  0.427300  0.941500  1.0  -0.1178
  C  C196  1  0.133300  0.481000  0.985400  1.0  -0.089
  C  C197  1  0.178000  0.520200  0.044900  1.0  -0.1237
  C  C198  1  0.271200  0.504800  0.057400  1.0  -0.0826
  C  C199  1  0.316800  0.450700  0.013900  1.0  -0.1175
  C  C200  1  0.128500  0.575200  0.095600  1.0  0.6835
  C  C201  1  0.826100  0.742300  0.089200  1.0  0.2091
  C  C202  1  0.769300  0.788800  0.044400  1.0  -0.1052
  C  C203  1  0.809300  0.849900  0.003700  1.0  0.0642
  C  C204  1  0.905500  0.858800  0.009800  1.0  -0.0872
  C  C205  1  0.957200  0.809400  0.055600  1.0  0.154
  C  C206  1  0.787300  0.680400  0.138200  1.0  0.1708
  C  C207  1  0.693100  0.665100  0.143300  1.0  -0.1296
  C  C208  1  0.663600  0.607900  0.192200  1.0  -0.0707
  C  C209  1  0.728400  0.566500  0.232600  1.0  -0.1755
  C  C210  1  0.820500  0.584300  0.224200  1.0  0.1794
  C  C211  1  0.059200  0.818900  0.067000  1.0  0.1754
  C  C212  1  0.109200  0.875700  0.032400  1.0  -0.1338
  C  C213  1  0.201800  0.884500  0.051800  1.0  -0.0758
  C  C214  1  0.242500  0.835800  0.103800  1.0  -0.1198
  C  C215  1  0.188300  0.778300  0.133600  1.0  0.1884
  C  C216  1  0.751000  0.902700  0.958100  1.0  0.0086
  C  C217  1  0.656000  0.907900  0.971100  1.0  -0.0957
  C  C218  1  0.600000  0.955500  0.926900  1.0  -0.0657
  C  C219  1  0.639000  0.998200  0.867300  1.0  -0.1565
  C  C220  1  0.734900  0.995500  0.855900  1.0  -0.0844
  C  C221  1  0.789600  0.948600  0.900300  1.0  -0.1036
  C  C222  1  0.578400  0.048500  0.818800  1.0  0.6575
  C  C223  1  0.527800  0.275700  0.539200  1.0  -0.1925
  C  C224  1  0.554000  0.350300  0.530900  1.0  -0.0517
  C  C225  1  0.555000  0.372900  0.452500  1.0  -0.0779
  C  C226  1  0.528000  0.317400  0.402800  1.0  -0.1428
  C  C227  1  0.519500  0.231600  0.611800  1.0  0.6913
  C  C228  1  0.520400  0.319400  0.316000  1.0  0.6679
  C  C229  1  0.175500  0.243000  0.324200  1.0  0.1732
  C  C230  1  0.225400  0.296700  0.365700  1.0  -0.0976
  C  C231  1  0.179800  0.349300  0.411600  1.0  0.0629
  C  C232  1  0.082200  0.344000  0.415200  1.0  -0.1165
  C  C233  1  0.036200  0.288400  0.374300  1.0  0.1904
  C  C234  1  0.216600  0.185000  0.272700  1.0  0.159
  C  C235  1  0.312300  0.174100  0.265100  1.0  -0.1178
  C  C236  1  0.345300  0.118200  0.217700  1.0  -0.0962
  C  C237  1  0.281900  0.073500  0.177800  1.0  -0.0921
  C  C238  1  0.187300  0.088400  0.186300  1.0  0.174
  C  C239  1  0.934600  0.277800  0.378000  1.0  0.1695
  C  C240  1  0.877600  0.319800  0.426600  1.0  -0.1292
  C  C241  1  0.784400  0.306100  0.427500  1.0  -0.0722
  C  C242  1  0.747900  0.249900  0.380000  1.0  -0.1039
  C  C243  1  0.807700  0.211000  0.332500  1.0  0.1661
  C  C244  1  0.229300  0.410200  0.455900  1.0  -0.033
  C  C245  1  0.321300  0.427300  0.441500  1.0  -0.1177
  C  C246  1  0.366700  0.481000  0.485400  1.0  -0.0821
  C  C247  1  0.322000  0.520200  0.544900  1.0  -0.1233
  C  C248  1  0.228800  0.504800  0.557400  1.0  -0.0821
  C  C249  1  0.183200  0.450700  0.513900  1.0  -0.1163
  C  C250  1  0.371500  0.575200  0.595600  1.0  0.6835
  C  C251  1  0.673900  0.742300  0.589200  1.0  0.2097
  C  C252  1  0.730700  0.788800  0.544400  1.0  -0.1021
  C  C253  1  0.690700  0.849900  0.503700  1.0  0.0646
  C  C254  1  0.594500  0.858800  0.509800  1.0  -0.09
  C  C255  1  0.542800  0.809400  0.555600  1.0  0.1516
  C  C256  1  0.712700  0.680400  0.638200  1.0  0.1706
  C  C257  1  0.806900  0.665100  0.643300  1.0  -0.1288
  C  C258  1  0.836400  0.607900  0.692200  1.0  -0.0709
  C  C259  1  0.771600  0.566500  0.732600  1.0  -0.1717
  C  C260  1  0.679500  0.584300  0.724200  1.0  0.18
  C  C261  1  0.440800  0.818900  0.567000  1.0  0.1755
  C  C262  1  0.390800  0.875700  0.532400  1.0  -0.1341
  C  C263  1  0.298200  0.884500  0.551800  1.0  -0.0752
  C  C264  1  0.257500  0.835800  0.603800  1.0  -0.1231
  C  C265  1  0.311700  0.778300  0.633600  1.0  0.1854
  C  C266  1  0.749000  0.902700  0.458100  1.0  0.0083
  C  C267  1  0.844000  0.907900  0.471100  1.0  -0.0996
  C  C268  1  0.900000  0.955500  0.426900  1.0  -0.066
  C  C269  1  0.861000  0.998200  0.367300  1.0  -0.1557
  C  C270  1  0.765100  0.995500  0.355900  1.0  -0.0863
  C  C271  1  0.710400  0.948600  0.400300  1.0  -0.1023
  C  C272  1  0.921600  0.048500  0.318800  1.0  0.6575
  C  C273  1  0.972200  0.275700  0.039200  1.0  -0.1956
  C  C274  1  0.946000  0.350300  0.030900  1.0  -0.0553
  C  C275  1  0.945000  0.372900  0.952500  1.0  -0.0788
  C  C276  1  0.972000  0.317400  0.902800  1.0  -0.142
  C  C277  1  0.980500  0.231600  0.111800  1.0  0.6914
  C  C278  1  0.979600  0.319400  0.816000  1.0  0.6571
  C  C279  1  0.675500  0.757000  0.324200  1.0  0.1728
  C  C280  1  0.725400  0.703300  0.365700  1.0  -0.098
  C  C281  1  0.679800  0.650700  0.411600  1.0  0.0622
  C  C282  1  0.582200  0.656000  0.415200  1.0  -0.1173
  C  C283  1  0.536200  0.711600  0.374300  1.0  0.1903
  C  C284  1  0.716600  0.815000  0.272700  1.0  0.1585
  C  C285  1  0.812300  0.825900  0.265100  1.0  -0.1179
  C  C286  1  0.845300  0.881800  0.217700  1.0  -0.0951
  C  C287  1  0.781900  0.926500  0.177800  1.0  -0.082
  C  C288  1  0.687300  0.911600  0.186300  1.0  0.1736
  C  C289  1  0.434600  0.722200  0.378000  1.0  0.1692
  C  C290  1  0.377600  0.680200  0.426600  1.0  -0.1296
  C  C291  1  0.284400  0.693900  0.427500  1.0  -0.0712
  C  C292  1  0.247900  0.750100  0.380000  1.0  -0.1003
  C  C293  1  0.307700  0.789000  0.332500  1.0  0.1659
  C  C294  1  0.729300  0.589800  0.455900  1.0  -0.0331
  C  C295  1  0.821300  0.572700  0.441500  1.0  -0.1178
  C  C296  1  0.866700  0.519000  0.485400  1.0  -0.079
  C  C297  1  0.822000  0.479800  0.544900  1.0  -0.1233
  C  C298  1  0.728800  0.495200  0.557400  1.0  -0.0869
  C  C299  1  0.683200  0.549300  0.513900  1.0  -0.1221
  C  C300  1  0.871500  0.424800  0.595600  1.0  0.683
  C  C301  1  0.173900  0.257700  0.589200  1.0  0.2099
  C  C302  1  0.230700  0.211200  0.544400  1.0  -0.1022
  C  C303  1  0.190700  0.150100  0.503700  1.0  0.0642
  C  C304  1  0.094500  0.141200  0.509800  1.0  -0.0907
  C  C305  1  0.042800  0.190600  0.555600  1.0  0.1525
  C  C306  1  0.212700  0.319600  0.638200  1.0  0.17
  C  C307  1  0.306900  0.334900  0.643300  1.0  -0.1295
  C  C308  1  0.336400  0.392100  0.692200  1.0  -0.0701
  C  C309  1  0.271600  0.433500  0.732600  1.0  -0.1701
  C  C310  1  0.179500  0.415700  0.724200  1.0  0.1787
  C  C311  1  0.940800  0.181100  0.567000  1.0  0.1746
  C  C312  1  0.890800  0.124300  0.532400  1.0  -0.1336
  C  C313  1  0.798200  0.115500  0.551800  1.0  -0.0613
  C  C314  1  0.757500  0.164200  0.603800  1.0  -0.1237
  C  C315  1  0.811700  0.221700  0.633600  1.0  0.1858
  C  C316  1  0.249000  0.097300  0.458100  1.0  0.0086
  C  C317  1  0.344000  0.092100  0.471100  1.0  -0.0994
  C  C318  1  0.400000  0.044500  0.426900  1.0  -0.0664
  C  C319  1  0.361000  0.001800  0.367300  1.0  -0.1563
  C  C320  1  0.265100  0.004500  0.355900  1.0  -0.0921
  C  C321  1  0.210400  0.051400  0.400300  1.0  -0.1024
  C  C322  1  0.421600  0.951500  0.318800  1.0  0.6577
  C  C323  1  0.472200  0.724300  0.039200  1.0  -0.1946
  C  C324  1  0.446000  0.649700  0.030900  1.0  -0.0556
  C  C325  1  0.445000  0.627100  0.952500  1.0  -0.0793
  C  C326  1  0.472000  0.682600  0.902800  1.0  -0.1412
  C  C327  1  0.480500  0.768400  0.111800  1.0  0.6903
  C  C328  1  0.479600  0.680600  0.816000  1.0  0.657
  S  S329  1  0.002600  0.764370  0.450910  1.0  0.1195
  S  S330  1  0.502600  0.235630  0.450910  1.0  0.1187
  S  S331  1  0.997400  0.235630  0.950910  1.0  0.1187
  S  S332  1  0.497400  0.764370  0.950910  1.0  0.1196
  N  N333  1  0.917700  0.760300  0.828300  1.0  -0.3924
  N  N334  1  0.844900  0.857600  0.732700  1.0  -0.3605
  N  N335  1  0.100100  0.776200  0.831700  1.0  -0.3327
  N  N336  1  0.417600  0.248000  0.093900  1.0  -0.3809
  N  N337  1  0.351500  0.359400  0.178600  1.0  -0.3634
  N  N338  1  0.599500  0.230800  0.116600  1.0  -0.3791
  N  N339  1  0.417700  0.239700  0.828300  1.0  -0.3933
  N  N340  1  0.344900  0.142400  0.732700  1.0  -0.3614
  N  N341  1  0.600100  0.223800  0.831700  1.0  -0.331
  N  N342  1  0.917600  0.752000  0.093900  1.0  -0.3811
  N  N343  1  0.851500  0.640600  0.178600  1.0  -0.3626
  N  N344  1  0.099500  0.769200  0.116600  1.0  -0.3793
  N  N345  1  0.082300  0.239700  0.328300  1.0  -0.3937
  N  N346  1  0.155100  0.142400  0.232700  1.0  -0.3631
  N  N347  1  0.899900  0.223800  0.331700  1.0  -0.3353
  N  N348  1  0.582400  0.752000  0.593900  1.0  -0.3808
  N  N349  1  0.648500  0.640600  0.678600  1.0  -0.367
  N  N350  1  0.400500  0.769200  0.616600  1.0  -0.3805
  N  N351  1  0.582300  0.760300  0.328300  1.0  -0.3926
  N  N352  1  0.655100  0.857600  0.232700  1.0  -0.3627
  N  N353  1  0.399900  0.776200  0.331700  1.0  -0.3341
  N  N354  1  0.082400  0.248000  0.593900  1.0  -0.3801
  N  N355  1  0.148500  0.359400  0.678600  1.0  -0.3656
  N  N356  1  0.900500  0.230800  0.616600  1.0  -0.3814
  O  O357  1  0.541700  0.412320  0.081600  1.0  -0.6016
  O  O358  1  0.671000  0.391510  0.148900  1.0  -0.6341
  O  O359  1  0.106600  0.927090  0.753700  1.0  -0.5861
  O  O360  1  0.001200  0.932100  0.845600  1.0  -0.6268
  O  O361  1  0.037900  0.736600  0.676000  1.0  -0.6007
  O  O362  1  0.993800  0.835400  0.608500  1.0  -0.6066
  O  O363  1  0.008100  0.740800  0.280300  1.0  -0.595
  O  O364  1  0.027500  0.617800  0.281800  1.0  -0.5851
  O  O365  1  0.041700  0.587680  0.081600  1.0  -0.6013
  O  O366  1  0.171000  0.608490  0.148900  1.0  -0.6337
  O  O367  1  0.606600  0.072910  0.753700  1.0  -0.5848
  O  O368  1  0.501200  0.067900  0.845600  1.0  -0.627
  O  O369  1  0.537900  0.263400  0.676000  1.0  -0.6005
  O  O370  1  0.493800  0.164600  0.608500  1.0  -0.6068
  O  O371  1  0.508100  0.259200  0.280300  1.0  -0.5961
  O  O372  1  0.527500  0.382200  0.281800  1.0  -0.585
  O  O373  1  0.458300  0.587680  0.581600  1.0  -0.6028
  O  O374  1  0.329000  0.608490  0.648900  1.0  -0.6341
  O  O375  1  0.893400  0.072910  0.253700  1.0  -0.5836
  O  O376  1  0.998800  0.067900  0.345600  1.0  -0.6273
  O  O377  1  0.962100  0.263400  0.176000  1.0  -0.6009
  O  O378  1  0.006200  0.164600  0.108500  1.0  -0.6071
  O  O379  1  0.991900  0.259200  0.780300  1.0  -0.5954
  O  O380  1  0.972500  0.382200  0.781800  1.0  -0.585
  O  O381  1  0.958300  0.412320  0.581600  1.0  -0.6029
  O  O382  1  0.829000  0.391510  0.648900  1.0  -0.6342
  O  O383  1  0.393400  0.927090  0.253700  1.0  -0.585
  O  O384  1  0.498800  0.932100  0.345600  1.0  -0.6272
  O  O385  1  0.462100  0.736600  0.176000  1.0  -0.6006
  O  O386  1  0.506200  0.835400  0.108500  1.0  -0.608
  O  O387  1  0.491900  0.740800  0.780300  1.0  -0.5953
  O  O388  1  0.472500  0.617800  0.781800  1.0  -0.5849
