# generated using pymatgen
data_Cd3H18C24(NO6)2
_symmetry_space_group_name_H-M   'P 1'
_cell_length_a   11.51780000
_cell_length_b   12.41260000
_cell_length_c   13.17080000
_cell_angle_alpha   94.26100000
_cell_angle_beta   92.97800000
_cell_angle_gamma   93.13400000
_symmetry_Int_Tables_number   1
_chemical_formula_structural   Cd3H18C24(NO6)2
_chemical_formula_sum   'Cd6 H36 C48 N4 O24'
_cell_volume   1871.99248151
_cell_formula_units_Z   2
loop_
 _symmetry_equiv_pos_site_id
 _symmetry_equiv_pos_as_xyz
  1  'x, y, z'
loop_
 _atom_site_type_symbol
 _atom_site_label
 _atom_site_symmetry_multiplicity
 _atom_site_fract_x
 _atom_site_fract_y
 _atom_site_fract_z
 _atom_site_occupancy
 _atom_site_charge
  Cd  Cd1  1  0.723490  0.041600  0.475060  1.0  0.8958
  Cd  Cd2  1  0.120880  0.465780  0.726600  1.0  0.9623
  Cd  Cd3  1  0.471070  0.683280  0.121480  1.0  0.9628
  Cd  Cd4  1  0.276510  0.958400  0.524940  1.0  0.8896
  Cd  Cd5  1  0.879120  0.534220  0.273400  1.0  0.9664
  Cd  Cd6  1  0.528930  0.316720  0.878520  1.0  0.9614
  H  H7  1  0.550500  0.347600  0.288700  1.0  0.1174
  H  H8  1  0.425000  0.278300  0.554900  1.0  0.1137
  H  H9  1  0.872900  0.761500  0.651900  1.0  0.1142
  H  H10  1  0.318000  0.534300  0.417800  1.0  0.1009
  H  H11  1  0.607200  0.860700  0.813300  1.0  0.1122
  H  H12  1  0.792500  0.616700  0.902600  1.0  0.1124
  H  H13  1  0.000200  0.117000  0.504700  1.0  0.0851
  H  H14  1  0.963000  0.072200  0.607300  1.0  0.0796
  H  H15  1  0.808400  0.150900  0.696900  1.0  0.08
  H  H16  1  0.732400  0.236400  0.647100  1.0  0.0777
  H  H17  1  0.848700  0.367700  0.715900  1.0  0.0894
  H  H18  1  0.917600  0.283000  0.773600  1.0  0.0709
  H  H19  1  0.016300  0.368500  0.505700  1.0  0.0853
  H  H20  1  0.914700  0.426600  0.557900  1.0  0.0871
  H  H21  1  0.787300  0.303700  0.486800  1.0  0.0843
  H  H22  1  0.887500  0.251700  0.427100  1.0  0.0807
  H  H23  1  0.075000  0.197400  0.695600  1.0  0.074
  H  H24  1  0.120400  0.235500  0.592900  1.0  0.0843
  H  H25  1  0.449500  0.652400  0.711300  1.0  0.1161
  H  H26  1  0.575000  0.721700  0.445100  1.0  0.1142
  H  H27  1  0.127100  0.238500  0.348100  1.0  0.1123
  H  H28  1  0.682000  0.465700  0.582200  1.0  0.1022
  H  H29  1  0.392800  0.139300  0.186700  1.0  0.1118
  H  H30  1  0.207500  0.383300  0.097400  1.0  0.1125
  H  H31  1  0.999800  0.883000  0.495300  1.0  0.0832
  H  H32  1  0.037000  0.927800  0.392700  1.0  0.0798
  H  H33  1  0.191600  0.849100  0.303100  1.0  0.0853
  H  H34  1  0.267600  0.763600  0.352900  1.0  0.0786
  H  H35  1  0.151300  0.632300  0.284100  1.0  0.0868
  H  H36  1  0.082400  0.717000  0.226400  1.0  0.0713
  H  H37  1  0.983700  0.631500  0.494300  1.0  0.0855
  H  H38  1  0.085300  0.573400  0.442100  1.0  0.0846
  H  H39  1  0.212700  0.696300  0.513200  1.0  0.0835
  H  H40  1  0.112500  0.748300  0.572900  1.0  0.0821
  H  H41  1  0.925000  0.802600  0.304400  1.0  0.0701
  H  H42  1  0.879600  0.764500  0.407100  1.0  0.0833
  C  C43  1  0.436900  0.452800  0.340000  1.0  -0.1258
  C  C44  1  0.279300  0.431400  0.583600  1.0  0.6589
  C  C45  1  0.498900  0.297400  0.421600  1.0  -0.151
  C  C46  1  0.502700  0.363500  0.341900  1.0  0.0203
  C  C47  1  0.572900  0.202000  0.425000  1.0  0.6709
  C  C48  1  0.427000  0.321700  0.500400  1.0  0.0127
  C  C49  1  0.358600  0.408800  0.499100  1.0  -0.1357
  C  C50  1  0.947600  0.605700  0.763000  1.0  0.6789
  C  C51  1  0.608000  0.719700  0.957200  1.0  0.6825
  C  C52  1  0.446900  0.529100  0.257500  1.0  0.6905
  C  C53  1  0.686200  0.736100  0.872400  1.0  -0.1393
  C  C54  1  0.827500  0.756300  0.707900  1.0  0.0194
  C  C55  1  0.363700  0.474900  0.418900  1.0  -0.0068
  C  C56  1  0.667500  0.814600  0.804100  1.0  -0.0074
  C  C57  1  0.778600  0.669300  0.857400  1.0  0.0397
  C  C58  1  0.849500  0.679700  0.777200  1.0  -0.1294
  C  C59  1  0.715700  0.909900  0.646800  1.0  0.7071
  C  C60  1  0.737900  0.824900  0.722300  1.0  -0.1405
  C  C61  1  0.968800  0.136600  0.570000  1.0  -0.018
  C  C62  1  0.810700  0.211900  0.654900  1.0  -0.0144
  C  C63  1  0.891400  0.302700  0.706700  1.0  -0.0037
  C  C64  1  0.951000  0.358200  0.548300  1.0  0.0116
  C  C65  1  0.862600  0.273000  0.494500  1.0  0.0041
  C  C66  1  0.051200  0.223100  0.630300  1.0  -0.0156
  C  C67  1  0.563100  0.547200  0.660000  1.0  -0.1246
  C  C68  1  0.720700  0.568600  0.416400  1.0  0.6547
  C  C69  1  0.501100  0.702600  0.578400  1.0  -0.1504
  C  C70  1  0.497300  0.636500  0.658100  1.0  0.0277
  C  C71  1  0.427100  0.798000  0.575000  1.0  0.6723
  C  C72  1  0.573000  0.678300  0.499600  1.0  0.0117
  C  C73  1  0.641400  0.591200  0.500900  1.0  -0.1369
  C  C74  1  0.052400  0.394300  0.237000  1.0  0.6769
  C  C75  1  0.392000  0.280300  0.042800  1.0  0.6837
  C  C76  1  0.553100  0.470900  0.742500  1.0  0.6977
  C  C77  1  0.313800  0.263900  0.127600  1.0  -0.1438
  C  C78  1  0.172500  0.243700  0.292100  1.0  0.0209
  C  C79  1  0.636300  0.525100  0.581100  1.0  -0.0069
  C  C80  1  0.332500  0.185400  0.195900  1.0  -0.0087
  C  C81  1  0.221400  0.330700  0.142600  1.0  0.0402
  C  C82  1  0.150500  0.320300  0.222800  1.0  -0.1348
  C  C83  1  0.284300  0.090100  0.353200  1.0  0.7078
  C  C84  1  0.262100  0.175100  0.277700  1.0  -0.1404
  C  C85  1  0.031200  0.863400  0.430000  1.0  -0.0178
  C  C86  1  0.189300  0.788100  0.345100  1.0  -0.015
  C  C87  1  0.108600  0.697300  0.293300  1.0  -0.0035
  C  C88  1  0.049000  0.641800  0.451700  1.0  0.01
  C  C89  1  0.137400  0.727000  0.505500  1.0  0.0056
  C  C90  1  0.948800  0.776900  0.369700  1.0  -0.0181
  N  N91  1  0.852100  0.177700  0.553600  1.0  -0.2632
  N  N92  1  0.993200  0.325500  0.647100  1.0  -0.2395
  N  N93  1  0.147900  0.822300  0.446400  1.0  -0.2622
  N  N94  1  0.006800  0.674500  0.352900  1.0  -0.2416
  O  O95  1  0.212800  0.507100  0.577900  1.0  -0.5992
  O  O96  1  0.281700  0.375000  0.659000  1.0  -0.6078
  O  O97  1  0.631600  0.173400  0.351500  1.0  -0.6282
  O  O98  1  0.521700  0.775800  0.967600  1.0  -0.626
  O  O99  1  0.577300  0.153500  0.505800  1.0  -0.6039
  O  O100  1  0.775100  0.909100  0.569900  1.0  -0.5831
  O  O101  1  0.514600  0.509300  0.186400  1.0  -0.6115
  O  O102  1  0.389300  0.611500  0.261600  1.0  -0.6021
  O  O103  1  0.630300  0.648200  0.018000  1.0  -0.6301
  O  O104  1  0.973600  0.543700  0.831700  1.0  -0.6301
  O  O105  1  0.002300  0.607200  0.684900  1.0  -0.6005
  O  O106  1  0.641100  0.976600  0.666500  1.0  -0.5493
  O  O107  1  0.787200  0.492900  0.422100  1.0  -0.5988
  O  O108  1  0.718300  0.625000  0.341000  1.0  -0.604
  O  O109  1  0.368400  0.826600  0.648500  1.0  -0.6273
  O  O110  1  0.478300  0.224200  0.032400  1.0  -0.6267
  O  O111  1  0.422700  0.846500  0.494200  1.0  -0.5994
  O  O112  1  0.224900  0.090900  0.430100  1.0  -0.5839
  O  O113  1  0.485400  0.490700  0.813600  1.0  -0.6128
  O  O114  1  0.610700  0.388500  0.738400  1.0  -0.6061
  O  O115  1  0.369700  0.351800  0.982000  1.0  -0.632
  O  O116  1  0.026400  0.456300  0.168300  1.0  -0.6254
  O  O117  1  0.997700  0.392800  0.315100  1.0  -0.6021
  O  O118  1  0.358900  0.023400  0.333500  1.0  -0.5517
