# generated using pymatgen
data_MnH4C9O7
_symmetry_space_group_name_H-M   'P 1'
_cell_length_a   16.04450000
_cell_length_b   11.89850000
_cell_length_c   18.38960000
_cell_angle_alpha   90.00000000
_cell_angle_beta   104.45200000
_cell_angle_gamma   90.00000000
_symmetry_Int_Tables_number   1
_chemical_formula_structural   MnH4C9O7
_chemical_formula_sum   'Mn8 H32 C72 O56'
_cell_volume   3399.58737601
_cell_formula_units_Z   8
loop_
 _symmetry_equiv_pos_site_id
 _symmetry_equiv_pos_as_xyz
  1  'x, y, z'
loop_
 _atom_site_type_symbol
 _atom_site_label
 _atom_site_symmetry_multiplicity
 _atom_site_fract_x
 _atom_site_fract_y
 _atom_site_fract_z
 _atom_site_occupancy
 _atom_site_charge
  Mn  Mn1  1  0.143150  0.709040  0.437770  1.0  1.1517
  Mn  Mn2  1  0.643150  0.209040  0.437770  1.0  1.1517
  Mn  Mn3  1  0.856850  0.709040  0.062230  1.0  1.1488
  Mn  Mn4  1  0.356850  0.209040  0.062230  1.0  1.1488
  Mn  Mn5  1  0.856850  0.290960  0.562230  1.0  1.1493
  Mn  Mn6  1  0.356850  0.790960  0.562230  1.0  1.1493
  Mn  Mn7  1  0.143150  0.290960  0.937770  1.0  1.1523
  Mn  Mn8  1  0.643150  0.790960  0.937770  1.0  1.1523
  H  H9  1  0.104100  0.472800  0.070100  1.0  0.1442
  H  H10  1  0.118700  0.844200  0.538600  1.0  0.4695
  H  H11  1  0.309900  0.454800  0.245400  1.0  0.1483
  H  H12  1  0.109100  0.646900  0.257800  1.0  0.1375
  H  H13  1  0.604100  0.972800  0.070100  1.0  0.1442
  H  H14  1  0.618700  0.344200  0.538600  1.0  0.4695
  H  H15  1  0.809900  0.954800  0.245400  1.0  0.1483
  H  H16  1  0.609100  0.146900  0.257800  1.0  0.1375
  H  H17  1  0.895900  0.472800  0.429900  1.0  0.1442
  H  H18  1  0.881300  0.844200  0.961400  1.0  0.4709
  H  H19  1  0.690100  0.454800  0.254600  1.0  0.1499
  H  H20  1  0.890900  0.646900  0.242200  1.0  0.1382
  H  H21  1  0.395900  0.972800  0.429900  1.0  0.1442
  H  H22  1  0.381300  0.344200  0.961400  1.0  0.4709
  H  H23  1  0.190100  0.954800  0.254600  1.0  0.1499
  H  H24  1  0.390900  0.146900  0.242200  1.0  0.1382
  H  H25  1  0.895900  0.527200  0.929900  1.0  0.1443
  H  H26  1  0.881300  0.155800  0.461400  1.0  0.4711
  H  H27  1  0.690100  0.545200  0.754600  1.0  0.1495
  H  H28  1  0.890900  0.353100  0.742200  1.0  0.1381
  H  H29  1  0.395900  0.027200  0.929900  1.0  0.1443
  H  H30  1  0.381300  0.655800  0.461400  1.0  0.4711
  H  H31  1  0.190100  0.045200  0.754600  1.0  0.1495
  H  H32  1  0.390900  0.853100  0.742200  1.0  0.1381
  H  H33  1  0.104100  0.527200  0.570100  1.0  0.1443
  H  H34  1  0.118700  0.155800  0.038600  1.0  0.4706
  H  H35  1  0.309900  0.545200  0.745400  1.0  0.1486
  H  H36  1  0.109100  0.353100  0.757800  1.0  0.1378
  H  H37  1  0.604100  0.027200  0.570100  1.0  0.1443
  H  H38  1  0.618700  0.655800  0.038600  1.0  0.4706
  H  H39  1  0.809900  0.045200  0.745400  1.0  0.1486
  H  H40  1  0.609100  0.853100  0.757800  1.0  0.1378
  C  C41  1  0.212900  0.449800  0.151400  1.0  -0.1163
  C  C42  1  0.094900  0.570300  0.157200  1.0  -0.1074
  C  C43  1  0.216100  0.553900  0.264600  1.0  -0.0736
  C  C44  1  0.132700  0.494200  0.118500  1.0  0.0403
  C  C45  1  0.259300  0.581200  0.345300  1.0  0.7634
  C  C46  1  0.255100  0.368400  0.109600  1.0  0.752
  C  C47  1  0.254900  0.482000  0.223900  1.0  0.0687
  C  C48  1  0.008700  0.620600  0.121100  1.0  0.7264
  C  C49  1  0.135700  0.598300  0.231000  1.0  0.0069
  C  C50  1  0.712900  0.949800  0.151400  1.0  -0.1163
  C  C51  1  0.594900  0.070300  0.157200  1.0  -0.1074
  C  C52  1  0.716100  0.053900  0.264600  1.0  -0.0736
  C  C53  1  0.632700  0.994200  0.118500  1.0  0.0403
  C  C54  1  0.759300  0.081200  0.345300  1.0  0.7634
  C  C55  1  0.755100  0.868400  0.109600  1.0  0.752
  C  C56  1  0.754900  0.982000  0.223900  1.0  0.0687
  C  C57  1  0.508700  0.120600  0.121100  1.0  0.7264
  C  C58  1  0.635700  0.098300  0.231000  1.0  0.0069
  C  C59  1  0.787100  0.449800  0.348600  1.0  -0.1166
  C  C60  1  0.905100  0.570300  0.342800  1.0  -0.1075
  C  C61  1  0.783900  0.553900  0.235400  1.0  -0.0731
  C  C62  1  0.867300  0.494200  0.381500  1.0  0.0414
  C  C63  1  0.740700  0.581200  0.154700  1.0  0.7627
  C  C64  1  0.744900  0.368400  0.390400  1.0  0.7528
  C  C65  1  0.745100  0.482000  0.276100  1.0  0.0673
  C  C66  1  0.991300  0.620600  0.378900  1.0  0.7254
  C  C67  1  0.864300  0.598300  0.269000  1.0  0.0079
  C  C68  1  0.287100  0.949800  0.348600  1.0  -0.1166
  C  C69  1  0.405100  0.070300  0.342800  1.0  -0.1075
  C  C70  1  0.283900  0.053900  0.235400  1.0  -0.0731
  C  C71  1  0.367300  0.994200  0.381500  1.0  0.0414
  C  C72  1  0.240700  0.081200  0.154700  1.0  0.7627
  C  C73  1  0.244900  0.868400  0.390400  1.0  0.7528
  C  C74  1  0.245100  0.982000  0.276100  1.0  0.0673
  C  C75  1  0.491300  0.120600  0.378900  1.0  0.7254
  C  C76  1  0.364300  0.098300  0.269000  1.0  0.0079
  C  C77  1  0.787100  0.550200  0.848600  1.0  -0.1166
  C  C78  1  0.905100  0.429700  0.842800  1.0  -0.1076
  C  C79  1  0.783900  0.446100  0.735400  1.0  -0.073
  C  C80  1  0.867300  0.505800  0.881500  1.0  0.0411
  C  C81  1  0.740700  0.418800  0.654700  1.0  0.7631
  C  C82  1  0.744900  0.631600  0.890400  1.0  0.752
  C  C83  1  0.745100  0.518000  0.776100  1.0  0.0667
  C  C84  1  0.991300  0.379400  0.878900  1.0  0.7253
  C  C85  1  0.864300  0.401700  0.769000  1.0  0.0083
  C  C86  1  0.287100  0.050200  0.848600  1.0  -0.1166
  C  C87  1  0.405100  0.929700  0.842800  1.0  -0.1076
  C  C88  1  0.283900  0.946100  0.735400  1.0  -0.073
  C  C89  1  0.367300  0.005800  0.881500  1.0  0.0411
  C  C90  1  0.240700  0.918800  0.654700  1.0  0.7631
  C  C91  1  0.244900  0.131600  0.890400  1.0  0.752
  C  C92  1  0.245100  0.018000  0.776100  1.0  0.0667
  C  C93  1  0.491300  0.879400  0.878900  1.0  0.7253
  C  C94  1  0.364300  0.901700  0.769000  1.0  0.0083
  C  C95  1  0.212900  0.550200  0.651400  1.0  -0.1163
  C  C96  1  0.094900  0.429700  0.657200  1.0  -0.1076
  C  C97  1  0.216100  0.446100  0.764600  1.0  -0.0737
  C  C98  1  0.132700  0.505800  0.618500  1.0  0.0399
  C  C99  1  0.259300  0.418800  0.845300  1.0  0.7635
  C  C100  1  0.255100  0.631600  0.609600  1.0  0.7517
  C  C101  1  0.254900  0.518000  0.723900  1.0  0.0685
  C  C102  1  0.008700  0.379400  0.621100  1.0  0.7261
  C  C103  1  0.135700  0.401700  0.731000  1.0  0.0073
  C  C104  1  0.712900  0.050200  0.651400  1.0  -0.1163
  C  C105  1  0.594900  0.929700  0.657200  1.0  -0.1076
  C  C106  1  0.716100  0.946100  0.764600  1.0  -0.0737
  C  C107  1  0.632700  0.005800  0.618500  1.0  0.0399
  C  C108  1  0.759300  0.918800  0.845300  1.0  0.7635
  C  C109  1  0.755100  0.131600  0.609600  1.0  0.7517
  C  C110  1  0.754900  0.018000  0.723900  1.0  0.0685
  C  C111  1  0.508700  0.879400  0.621100  1.0  0.7261
  C  C112  1  0.635700  0.901700  0.731000  1.0  0.0073
  O  O113  1  0.984500  0.706200  0.150800  1.0  -0.5448
  O  O114  1  0.328400  0.332500  0.141200  1.0  -0.5511
  O  O115  1  0.213100  0.589300  0.390000  1.0  -0.6121
  O  O116  1  0.340100  0.590700  0.362100  1.0  -0.5114
  O  O117  1  0.216400  0.338200  0.045800  1.0  -0.6816
  O  O118  1  0.962200  0.577100  0.063400  1.0  -0.5412
  O  O119  1  0.086400  0.833000  0.497000  1.0  -0.6707
  O  O120  1  0.484500  0.206200  0.150800  1.0  -0.545
  O  O121  1  0.828400  0.832500  0.141200  1.0  -0.5511
  O  O122  1  0.713100  0.089300  0.390000  1.0  -0.6121
  O  O123  1  0.840100  0.090700  0.362100  1.0  -0.5114
  O  O124  1  0.716400  0.838200  0.045800  1.0  -0.6816
  O  O125  1  0.462200  0.077100  0.063400  1.0  -0.5412
  O  O126  1  0.586400  0.333000  0.497000  1.0  -0.6707
  O  O127  1  0.015500  0.706200  0.349200  1.0  -0.5458
  O  O128  1  0.671600  0.332500  0.358800  1.0  -0.5515
  O  O129  1  0.786900  0.589300  0.110000  1.0  -0.6091
  O  O130  1  0.659900  0.590700  0.137900  1.0  -0.5112
  O  O131  1  0.783600  0.338200  0.454200  1.0  -0.6818
  O  O132  1  0.037800  0.577100  0.436600  1.0  -0.5433
  O  O133  1  0.913600  0.833000  0.003000  1.0  -0.6689
  O  O134  1  0.515500  0.206200  0.349200  1.0  -0.5458
  O  O135  1  0.171600  0.832500  0.358800  1.0  -0.5515
  O  O136  1  0.286900  0.089300  0.110000  1.0  -0.6091
  O  O137  1  0.159900  0.090700  0.137900  1.0  -0.5112
  O  O138  1  0.283600  0.838200  0.454200  1.0  -0.6818
  O  O139  1  0.537800  0.077100  0.436600  1.0  -0.5433
  O  O140  1  0.413600  0.333000  0.003000  1.0  -0.6689
  O  O141  1  0.015500  0.293800  0.849200  1.0  -0.5469
  O  O142  1  0.671600  0.667500  0.858800  1.0  -0.5499
  O  O143  1  0.786900  0.410700  0.610000  1.0  -0.611
  O  O144  1  0.659900  0.409300  0.637900  1.0  -0.5105
  O  O145  1  0.783600  0.661800  0.954200  1.0  -0.6815
  O  O146  1  0.037800  0.422900  0.936600  1.0  -0.5436
  O  O147  1  0.913600  0.167000  0.503000  1.0  -0.6681
  O  O148  1  0.515500  0.793800  0.849200  1.0  -0.547
  O  O149  1  0.171600  0.167500  0.858800  1.0  -0.5499
  O  O150  1  0.286900  0.910700  0.610000  1.0  -0.611
  O  O151  1  0.159900  0.909300  0.637900  1.0  -0.5105
  O  O152  1  0.283600  0.161800  0.954200  1.0  -0.6815
  O  O153  1  0.537800  0.922900  0.936600  1.0  -0.5436
  O  O154  1  0.413600  0.667000  0.503000  1.0  -0.6681
  O  O155  1  0.984500  0.293800  0.650800  1.0  -0.5458
  O  O156  1  0.328400  0.667500  0.641200  1.0  -0.5502
  O  O157  1  0.213100  0.410700  0.890000  1.0  -0.6134
  O  O158  1  0.340100  0.409300  0.862100  1.0  -0.5115
  O  O159  1  0.216400  0.661800  0.545800  1.0  -0.682
  O  O160  1  0.962200  0.422900  0.563400  1.0  -0.5413
  O  O161  1  0.086400  0.167000  0.997000  1.0  -0.6682
  O  O162  1  0.484500  0.793800  0.650800  1.0  -0.5458
  O  O163  1  0.828400  0.167500  0.641200  1.0  -0.5502
  O  O164  1  0.713100  0.910700  0.890000  1.0  -0.6134
  O  O165  1  0.840100  0.909300  0.862100  1.0  -0.5115
  O  O166  1  0.716400  0.161800  0.545800  1.0  -0.682
  O  O167  1  0.462200  0.922900  0.563400  1.0  -0.5413
  O  O168  1  0.586400  0.667000  0.997000  1.0  -0.6682
