# generated using pymatgen
data_Mn3H6C18O13
_symmetry_space_group_name_H-M   'P 1'
_cell_length_a   15.40350000
_cell_length_b   16.23110000
_cell_length_c   26.26800000
_cell_angle_alpha   90.00000000
_cell_angle_beta   95.18700000
_cell_angle_gamma   90.00000000
_symmetry_Int_Tables_number   1
_chemical_formula_structural   Mn3H6C18O13
_chemical_formula_sum   'Mn24 H48 C144 O104'
_cell_volume   6540.51971707
_cell_formula_units_Z   8
loop_
 _symmetry_equiv_pos_site_id
 _symmetry_equiv_pos_as_xyz
  1  'x, y, z'
loop_
 _atom_site_type_symbol
 _atom_site_label
 _atom_site_symmetry_multiplicity
 _atom_site_fract_x
 _atom_site_fract_y
 _atom_site_fract_z
 _atom_site_occupancy
 _atom_site_charge
  Mn  Mn1  1  0.834280  0.231690  0.655920  1.0  1.1232
  Mn  Mn2  1  0.678760  0.240910  0.547240  1.0  1.1675
  Mn  Mn3  1  0.752780  0.047040  0.614450  1.0  1.0888
  Mn  Mn4  1  0.334280  0.731690  0.655920  1.0  1.1232
  Mn  Mn5  1  0.178760  0.740910  0.547240  1.0  1.1675
  Mn  Mn6  1  0.252780  0.547040  0.614450  1.0  1.0888
  Mn  Mn7  1  0.165720  0.231690  0.844080  1.0  1.1239
  Mn  Mn8  1  0.321240  0.240910  0.952760  1.0  1.1671
  Mn  Mn9  1  0.247220  0.047040  0.885550  1.0  1.0884
  Mn  Mn10  1  0.665720  0.731690  0.844080  1.0  1.1239
  Mn  Mn11  1  0.821240  0.740910  0.952760  1.0  1.1671
  Mn  Mn12  1  0.747220  0.547040  0.885550  1.0  1.0884
  Mn  Mn13  1  0.165720  0.768310  0.344080  1.0  1.1237
  Mn  Mn14  1  0.321240  0.759090  0.452760  1.0  1.1664
  Mn  Mn15  1  0.247220  0.952960  0.385550  1.0  1.088
  Mn  Mn16  1  0.665720  0.268310  0.344080  1.0  1.1237
  Mn  Mn17  1  0.821240  0.259090  0.452760  1.0  1.1664
  Mn  Mn18  1  0.747220  0.452960  0.385550  1.0  1.088
  Mn  Mn19  1  0.834280  0.768310  0.155920  1.0  1.1238
  Mn  Mn20  1  0.678760  0.759090  0.047240  1.0  1.1668
  Mn  Mn21  1  0.752780  0.952960  0.114450  1.0  1.0886
  Mn  Mn22  1  0.334280  0.268310  0.155920  1.0  1.1238
  Mn  Mn23  1  0.178760  0.259090  0.047240  1.0  1.1668
  Mn  Mn24  1  0.252780  0.452960  0.114450  1.0  1.0886
  H  H25  1  0.552000  0.449000  0.621000  1.0  0.163
  H  H26  1  0.982000  0.445000  0.592000  1.0  0.127
  H  H27  1  0.569000  0.623000  0.719000  1.0  0.1492
  H  H28  1  0.940000  0.641000  0.513000  1.0  0.1631
  H  H29  1  0.778000  0.470000  0.500000  1.0  0.2033
  H  H30  1  0.740000  0.430000  0.709000  1.0  0.1283
  H  H31  1  0.052000  0.949000  0.621000  1.0  0.163
  H  H32  1  0.482000  0.945000  0.592000  1.0  0.127
  H  H33  1  0.069000  0.123000  0.719000  1.0  0.1492
  H  H34  1  0.440000  0.141000  0.513000  1.0  0.1631
  H  H35  1  0.278000  0.970000  0.500000  1.0  0.2033
  H  H36  1  0.240000  0.930000  0.709000  1.0  0.1283
  H  H37  1  0.448000  0.449000  0.879000  1.0  0.1648
  H  H38  1  0.018000  0.445000  0.908000  1.0  0.1271
  H  H39  1  0.431000  0.623000  0.781000  1.0  0.15
  H  H40  1  0.060000  0.641000  0.987000  1.0  0.1633
  H  H41  1  0.222000  0.470000  0.000000  1.0  0.2028
  H  H42  1  0.260000  0.430000  0.791000  1.0  0.1307
  H  H43  1  0.948000  0.949000  0.879000  1.0  0.1648
  H  H44  1  0.518000  0.945000  0.908000  1.0  0.1271
  H  H45  1  0.931000  0.123000  0.781000  1.0  0.15
  H  H46  1  0.560000  0.141000  0.987000  1.0  0.1633
  H  H47  1  0.722000  0.970000  0.000000  1.0  0.2028
  H  H48  1  0.760000  0.930000  0.791000  1.0  0.1307
  H  H49  1  0.448000  0.551000  0.379000  1.0  0.1648
  H  H50  1  0.018000  0.555000  0.408000  1.0  0.1273
  H  H51  1  0.431000  0.377000  0.281000  1.0  0.1506
  H  H52  1  0.060000  0.359000  0.487000  1.0  0.1657
  H  H53  1  0.222000  0.530000  0.500000  1.0  0.2024
  H  H54  1  0.260000  0.570000  0.291000  1.0  0.131
  H  H55  1  0.948000  0.051000  0.379000  1.0  0.1648
  H  H56  1  0.518000  0.055000  0.408000  1.0  0.1273
  H  H57  1  0.931000  0.877000  0.281000  1.0  0.1506
  H  H58  1  0.560000  0.859000  0.487000  1.0  0.1657
  H  H59  1  0.722000  0.030000  0.500000  1.0  0.2024
  H  H60  1  0.760000  0.070000  0.291000  1.0  0.131
  H  H61  1  0.552000  0.551000  0.121000  1.0  0.1636
  H  H62  1  0.982000  0.555000  0.092000  1.0  0.1266
  H  H63  1  0.569000  0.377000  0.219000  1.0  0.1495
  H  H64  1  0.940000  0.359000  0.013000  1.0  0.1636
  H  H65  1  0.778000  0.530000  0.000000  1.0  0.2029
  H  H66  1  0.740000  0.570000  0.209000  1.0  0.1286
  H  H67  1  0.052000  0.051000  0.121000  1.0  0.1636
  H  H68  1  0.482000  0.055000  0.092000  1.0  0.1266
  H  H69  1  0.069000  0.877000  0.219000  1.0  0.1495
  H  H70  1  0.440000  0.859000  0.013000  1.0  0.1636
  H  H71  1  0.278000  0.030000  0.000000  1.0  0.2029
  H  H72  1  0.240000  0.070000  0.209000  1.0  0.1286
  C  C73  1  0.844500  0.355800  0.561200  1.0  0.7271
  C  C74  1  0.687300  0.460000  0.710100  1.0  -0.1117
  C  C75  1  0.641300  0.428600  0.666667  1.0  -0.0599
  C  C76  1  0.662700  0.535500  0.730300  1.0  -0.0719
  C  C77  1  0.948800  0.475600  0.568900  1.0  0.0216
  C  C78  1  0.974000  0.552500  0.554300  1.0  -0.1598
  C  C79  1  0.872200  0.440600  0.547000  1.0  -0.1454
  C  C80  1  0.567900  0.468400  0.647200  1.0  -0.0022
  C  C81  1  0.844900  0.561900  0.495200  1.0  -0.0442
  C  C82  1  0.673200  0.350200  0.643300  1.0  0.758
  C  C83  1  0.821400  0.485800  0.510400  1.0  0.041
  C  C84  1  0.920800  0.595400  0.517500  1.0  -0.0064
  C  C85  1  0.061200  0.590100  0.572600  1.0  0.7138
  C  C86  1  0.540800  0.541400  0.666500  1.0  -0.122
  C  C87  1  0.457800  0.581600  0.646600  1.0  0.7409
  C  C88  1  0.708700  0.568200  0.778400  1.0  0.7039
  C  C89  1  0.590800  0.576500  0.708000  1.0  -0.0228
  C  C90  1  0.793100  0.605300  0.452200  1.0  0.7421
  C  C91  1  0.344500  0.855800  0.561200  1.0  0.7271
  C  C92  1  0.187300  0.960000  0.710100  1.0  -0.1117
  C  C93  1  0.141300  0.928600  0.666667  1.0  -0.0599
  C  C94  1  0.162700  0.035500  0.730300  1.0  -0.0719
  C  C95  1  0.448800  0.975600  0.568900  1.0  0.0216
  C  C96  1  0.474000  0.052500  0.554300  1.0  -0.1598
  C  C97  1  0.372200  0.940600  0.547000  1.0  -0.1454
  C  C98  1  0.067900  0.968400  0.647200  1.0  -0.0022
  C  C99  1  0.344900  0.061900  0.495200  1.0  -0.0442
  C  C100  1  0.173200  0.850200  0.643300  1.0  0.758
  C  C101  1  0.321400  0.985800  0.510400  1.0  0.041
  C  C102  1  0.420800  0.095400  0.517500  1.0  -0.0064
  C  C103  1  0.561200  0.090100  0.572600  1.0  0.7138
  C  C104  1  0.040800  0.041400  0.666500  1.0  -0.122
  C  C105  1  0.957800  0.081600  0.646600  1.0  0.7409
  C  C106  1  0.208700  0.068200  0.778400  1.0  0.7039
  C  C107  1  0.090800  0.076500  0.708000  1.0  -0.0228
  C  C108  1  0.293100  0.105300  0.452200  1.0  0.7421
  C  C109  1  0.155500  0.355800  0.938800  1.0  0.7263
  C  C110  1  0.312700  0.460000  0.789900  1.0  -0.1131
  C  C111  1  0.358700  0.428600  0.833300  1.0  -0.0615
  C  C112  1  0.337300  0.535500  0.769700  1.0  -0.0709
  C  C113  1  0.051200  0.475600  0.931100  1.0  0.0213
  C  C114  1  0.026000  0.552500  0.945700  1.0  -0.1621
  C  C115  1  0.127800  0.440600  0.953000  1.0  -0.151
  C  C116  1  0.432100  0.468400  0.852800  1.0  -0.0007
  C  C117  1  0.155100  0.561900  0.004800  1.0  -0.046
  C  C118  1  0.326800  0.350200  0.856700  1.0  0.7583
  C  C119  1  0.178600  0.485800  0.989600  1.0  0.0421
  C  C120  1  0.079200  0.595400  0.982500  1.0  -0.0044
  C  C121  1  0.938800  0.590100  0.927400  1.0  0.7128
  C  C122  1  0.459200  0.541400  0.833500  1.0  -0.1233
  C  C123  1  0.542200  0.581600  0.853400  1.0  0.7417
  C  C124  1  0.291300  0.568200  0.721600  1.0  0.7024
  C  C125  1  0.409200  0.576500  0.792000  1.0  -0.0222
  C  C126  1  0.206900  0.605300  0.047800  1.0  0.7406
  C  C127  1  0.655500  0.855800  0.938800  1.0  0.7263
  C  C128  1  0.812700  0.960000  0.789900  1.0  -0.1131
  C  C129  1  0.858700  0.928600  0.833300  1.0  -0.0615
  C  C130  1  0.837300  0.035500  0.769700  1.0  -0.0709
  C  C131  1  0.551200  0.975600  0.931100  1.0  0.0213
  C  C132  1  0.526000  0.052500  0.945700  1.0  -0.1621
  C  C133  1  0.627800  0.940600  0.953000  1.0  -0.151
  C  C134  1  0.932100  0.968400  0.852800  1.0  -0.0007
  C  C135  1  0.655100  0.061900  0.004800  1.0  -0.046
  C  C136  1  0.826800  0.850200  0.856700  1.0  0.7583
  C  C137  1  0.678600  0.985800  0.989600  1.0  0.0421
  C  C138  1  0.579200  0.095400  0.982500  1.0  -0.0044
  C  C139  1  0.438800  0.090100  0.927400  1.0  0.7128
  C  C140  1  0.959200  0.041400  0.833500  1.0  -0.1233
  C  C141  1  0.042200  0.081600  0.853400  1.0  0.7417
  C  C142  1  0.791300  0.068200  0.721600  1.0  0.7024
  C  C143  1  0.909200  0.076500  0.792000  1.0  -0.0222
  C  C144  1  0.706900  0.105300  0.047800  1.0  0.7406
  C  C145  1  0.155500  0.644200  0.438800  1.0  0.7279
  C  C146  1  0.312700  0.540000  0.289900  1.0  -0.1129
  C  C147  1  0.358700  0.571400  0.333333  1.0  -0.06
  C  C148  1  0.337300  0.464500  0.269700  1.0  -0.0712
  C  C149  1  0.051200  0.524400  0.431100  1.0  0.021
  C  C150  1  0.026000  0.447500  0.445700  1.0  -0.1644
  C  C151  1  0.127800  0.559400  0.453000  1.0  -0.1496
  C  C152  1  0.432100  0.531600  0.352800  1.0  -0.0
  C  C153  1  0.155100  0.438100  0.504800  1.0  -0.0447
  C  C154  1  0.326800  0.649800  0.356700  1.0  0.758
  C  C155  1  0.178600  0.514200  0.489600  1.0  0.042
  C  C156  1  0.079200  0.404600  0.482500  1.0  -0.0017
  C  C157  1  0.938800  0.409900  0.427400  1.0  0.7102
  C  C158  1  0.459200  0.458600  0.333500  1.0  -0.122
  C  C159  1  0.542200  0.418400  0.353400  1.0  0.7418
  C  C160  1  0.291300  0.431800  0.221600  1.0  0.7015
  C  C161  1  0.409200  0.423500  0.292000  1.0  -0.0211
  C  C162  1  0.206900  0.394700  0.547800  1.0  0.7427
  C  C163  1  0.655500  0.144200  0.438800  1.0  0.7279
  C  C164  1  0.812700  0.040000  0.289900  1.0  -0.1129
  C  C165  1  0.858700  0.071400  0.333333  1.0  -0.06
  C  C166  1  0.837300  0.964500  0.269700  1.0  -0.0712
  C  C167  1  0.551200  0.024400  0.431100  1.0  0.021
  C  C168  1  0.526000  0.947500  0.445700  1.0  -0.1644
  C  C169  1  0.627800  0.059400  0.453000  1.0  -0.1496
  C  C170  1  0.932100  0.031600  0.352800  1.0  -0.0
  C  C171  1  0.655100  0.938100  0.504800  1.0  -0.0447
  C  C172  1  0.826800  0.149800  0.356700  1.0  0.758
  C  C173  1  0.678600  0.014200  0.489600  1.0  0.042
  C  C174  1  0.579200  0.904600  0.482500  1.0  -0.0017
  C  C175  1  0.438800  0.909900  0.427400  1.0  0.7102
  C  C176  1  0.959200  0.958600  0.333500  1.0  -0.122
  C  C177  1  0.042200  0.918400  0.353400  1.0  0.7418
  C  C178  1  0.791300  0.931800  0.221600  1.0  0.7015
  C  C179  1  0.909200  0.923500  0.292000  1.0  -0.0211
  C  C180  1  0.706900  0.894700  0.547800  1.0  0.7427
  C  C181  1  0.844500  0.644200  0.061200  1.0  0.7272
  C  C182  1  0.687300  0.540000  0.210100  1.0  -0.112
  C  C183  1  0.641300  0.571400  0.166700  1.0  -0.0623
  C  C184  1  0.662700  0.464500  0.230300  1.0  -0.0718
  C  C185  1  0.948800  0.524400  0.068900  1.0  0.0213
  C  C186  1  0.974000  0.447500  0.054300  1.0  -0.1594
  C  C187  1  0.872200  0.559400  0.047000  1.0  -0.1457
  C  C188  1  0.567900  0.531600  0.147200  1.0  -0.0019
  C  C189  1  0.844900  0.438100  0.995200  1.0  -0.0449
  C  C190  1  0.673200  0.649800  0.143300  1.0  0.7579
  C  C191  1  0.821400  0.514200  0.010400  1.0  0.042
  C  C192  1  0.920800  0.404600  0.017500  1.0  -0.0064
  C  C193  1  0.061200  0.409900  0.072600  1.0  0.7121
  C  C194  1  0.540800  0.458600  0.166500  1.0  -0.1229
  C  C195  1  0.457800  0.418400  0.146600  1.0  0.7419
  C  C196  1  0.708700  0.431800  0.278400  1.0  0.7037
  C  C197  1  0.590800  0.423500  0.208000  1.0  -0.0199
  C  C198  1  0.793100  0.394700  0.952200  1.0  0.7407
  C  C199  1  0.344500  0.144200  0.061200  1.0  0.7272
  C  C200  1  0.187300  0.040000  0.210100  1.0  -0.112
  C  C201  1  0.141300  0.071400  0.166700  1.0  -0.0623
  C  C202  1  0.162700  0.964500  0.230300  1.0  -0.0718
  C  C203  1  0.448800  0.024400  0.068900  1.0  0.0213
  C  C204  1  0.474000  0.947500  0.054300  1.0  -0.1594
  C  C205  1  0.372200  0.059400  0.047000  1.0  -0.1457
  C  C206  1  0.067900  0.031600  0.147200  1.0  -0.0019
  C  C207  1  0.344900  0.938100  0.995200  1.0  -0.0449
  C  C208  1  0.173200  0.149800  0.143300  1.0  0.7579
  C  C209  1  0.321400  0.014200  0.010400  1.0  0.042
  C  C210  1  0.420800  0.904600  0.017500  1.0  -0.0064
  C  C211  1  0.561200  0.909900  0.072600  1.0  0.7121
  C  C212  1  0.040800  0.958600  0.166500  1.0  -0.1229
  C  C213  1  0.957800  0.918400  0.146600  1.0  0.7419
  C  C214  1  0.208700  0.931800  0.278400  1.0  0.7037
  C  C215  1  0.090800  0.923500  0.208000  1.0  -0.0199
  C  C216  1  0.293100  0.894700  0.952200  1.0  0.7407
  O  O217  1  0.640500  0.331700  0.599800  1.0  -0.6145
  O  O218  1  0.790500  0.319100  0.529490  1.0  -0.6411
  O  O219  1  0.074500  0.662900  0.557900  1.0  -0.6218
  O  O220  1  0.112400  0.547600  0.600900  1.0  -0.6188
  O  O221  1  0.774400  0.165800  0.588460  1.0  -0.727
  O  O222  1  0.727000  0.309100  0.670100  1.0  -0.571
  O  O223  1  0.875400  0.328000  0.603200  1.0  -0.6489
  O  O224  1  0.739300  0.565100  0.423000  1.0  -0.633
  O  O225  1  0.398900  0.536500  0.625400  1.0  -0.6315
  O  O226  1  0.450000  0.658000  0.653000  1.0  -0.6187
  O  O227  1  0.748600  0.515600  0.808300  1.0  -0.5881
  O  O228  1  0.703200  0.642400  0.789200  1.0  -0.6893
  O  O229  1  0.802600  0.680300  0.448100  1.0  -0.4127
  O  O230  1  0.140500  0.831700  0.599800  1.0  -0.6146
  O  O231  1  0.290500  0.819100  0.529490  1.0  -0.6411
  O  O232  1  0.574500  0.162900  0.557900  1.0  -0.6218
  O  O233  1  0.612400  0.047600  0.600900  1.0  -0.6188
  O  O234  1  0.274400  0.665800  0.588460  1.0  -0.727
  O  O235  1  0.227000  0.809100  0.670100  1.0  -0.571
  O  O236  1  0.375400  0.828000  0.603200  1.0  -0.6489
  O  O237  1  0.239300  0.065100  0.423000  1.0  -0.633
  O  O238  1  0.898900  0.036500  0.625400  1.0  -0.6314
  O  O239  1  0.950000  0.158000  0.653000  1.0  -0.6187
  O  O240  1  0.248600  0.015600  0.808300  1.0  -0.5881
  O  O241  1  0.203200  0.142400  0.789200  1.0  -0.6893
  O  O242  1  0.302600  0.180300  0.448100  1.0  -0.4127
  O  O243  1  0.359500  0.331700  0.900200  1.0  -0.6133
  O  O244  1  0.209500  0.319100  0.970510  1.0  -0.6393
  O  O245  1  0.925500  0.662900  0.942100  1.0  -0.623
  O  O246  1  0.887600  0.547600  0.899100  1.0  -0.6195
  O  O247  1  0.225600  0.165800  0.911540  1.0  -0.7256
  O  O248  1  0.273000  0.309100  0.829900  1.0  -0.5713
  O  O249  1  0.124600  0.328000  0.896800  1.0  -0.6471
  O  O250  1  0.260700  0.565100  0.077000  1.0  -0.6323
  O  O251  1  0.601100  0.536500  0.874600  1.0  -0.6304
  O  O252  1  0.550000  0.658000  0.847000  1.0  -0.6213
  O  O253  1  0.251400  0.515600  0.691700  1.0  -0.5878
  O  O254  1  0.296800  0.642400  0.710800  1.0  -0.6908
  O  O255  1  0.197400  0.680300  0.051900  1.0  -0.4126
  O  O256  1  0.859500  0.831700  0.900200  1.0  -0.6133
  O  O257  1  0.709500  0.819100  0.970510  1.0  -0.6393
  O  O258  1  0.425500  0.162900  0.942100  1.0  -0.623
  O  O259  1  0.387600  0.047600  0.899100  1.0  -0.6195
  O  O260  1  0.725600  0.665800  0.911540  1.0  -0.7256
  O  O261  1  0.773000  0.809100  0.829900  1.0  -0.5713
  O  O262  1  0.624600  0.828000  0.896800  1.0  -0.6471
  O  O263  1  0.760700  0.065100  0.077000  1.0  -0.6323
  O  O264  1  0.101100  0.036500  0.874600  1.0  -0.6304
  O  O265  1  0.050000  0.158000  0.847000  1.0  -0.6213
  O  O266  1  0.751400  0.015600  0.691700  1.0  -0.5878
  O  O267  1  0.796800  0.142400  0.710800  1.0  -0.6908
  O  O268  1  0.697400  0.180300  0.051900  1.0  -0.4126
  O  O269  1  0.359500  0.668300  0.400200  1.0  -0.6134
  O  O270  1  0.209500  0.680900  0.470510  1.0  -0.6405
  O  O271  1  0.925500  0.337100  0.442100  1.0  -0.6245
  O  O272  1  0.887600  0.452400  0.399100  1.0  -0.6194
  O  O273  1  0.225600  0.834200  0.411540  1.0  -0.7255
  O  O274  1  0.273000  0.690900  0.329900  1.0  -0.5719
  O  O275  1  0.124600  0.672000  0.396800  1.0  -0.648
  O  O276  1  0.260700  0.434900  0.577000  1.0  -0.6329
  O  O277  1  0.601100  0.463500  0.374600  1.0  -0.6304
  O  O278  1  0.550000  0.342000  0.347000  1.0  -0.6212
  O  O279  1  0.251400  0.484400  0.191700  1.0  -0.5884
  O  O280  1  0.296800  0.357600  0.210800  1.0  -0.6875
  O  O281  1  0.197400  0.319700  0.551900  1.0  -0.4081
  O  O282  1  0.859500  0.168300  0.400200  1.0  -0.6134
  O  O283  1  0.709500  0.180900  0.470510  1.0  -0.6405
  O  O284  1  0.425500  0.837100  0.442100  1.0  -0.6245
  O  O285  1  0.387600  0.952400  0.399100  1.0  -0.6194
  O  O286  1  0.725600  0.334200  0.411540  1.0  -0.7255
  O  O287  1  0.773000  0.190900  0.329900  1.0  -0.5719
  O  O288  1  0.624600  0.172000  0.396800  1.0  -0.648
  O  O289  1  0.760700  0.934900  0.577000  1.0  -0.6329
  O  O290  1  0.101100  0.963500  0.374600  1.0  -0.6307
  O  O291  1  0.050000  0.842000  0.347000  1.0  -0.6212
  O  O292  1  0.751400  0.984400  0.191700  1.0  -0.5884
  O  O293  1  0.796800  0.857600  0.210800  1.0  -0.6875
  O  O294  1  0.697400  0.819700  0.551900  1.0  -0.4081
  O  O295  1  0.640500  0.668300  0.099800  1.0  -0.6148
  O  O296  1  0.790500  0.680900  0.029490  1.0  -0.6417
  O  O297  1  0.074500  0.337100  0.057900  1.0  -0.6237
  O  O298  1  0.112400  0.452400  0.100900  1.0  -0.6187
  O  O299  1  0.774400  0.834200  0.088460  1.0  -0.7269
  O  O300  1  0.727000  0.690900  0.170100  1.0  -0.572
  O  O301  1  0.875400  0.672000  0.103200  1.0  -0.6495
  O  O302  1  0.739300  0.434900  0.923000  1.0  -0.633
  O  O303  1  0.398900  0.463500  0.125400  1.0  -0.6307
  O  O304  1  0.450000  0.342000  0.153000  1.0  -0.6201
  O  O305  1  0.748600  0.484400  0.308300  1.0  -0.5858
  O  O306  1  0.703200  0.357600  0.289200  1.0  -0.6869
  O  O307  1  0.802600  0.319700  0.948100  1.0  -0.4089
  O  O308  1  0.140500  0.168300  0.099800  1.0  -0.6149
  O  O309  1  0.290500  0.180900  0.029490  1.0  -0.6417
  O  O310  1  0.574500  0.837100  0.057900  1.0  -0.6237
  O  O311  1  0.612400  0.952400  0.100900  1.0  -0.6187
  O  O312  1  0.274400  0.334200  0.088460  1.0  -0.7269
  O  O313  1  0.227000  0.190900  0.170100  1.0  -0.572
  O  O314  1  0.375400  0.172000  0.103200  1.0  -0.6495
  O  O315  1  0.239300  0.934900  0.923000  1.0  -0.633
  O  O316  1  0.898900  0.963500  0.125400  1.0  -0.631
  O  O317  1  0.950000  0.842000  0.153000  1.0  -0.6202
  O  O318  1  0.248600  0.984400  0.308300  1.0  -0.5858
  O  O319  1  0.203200  0.857600  0.289200  1.0  -0.6869
  O  O320  1  0.302600  0.819700  0.948100  1.0  -0.4089
