# generated using pymatgen
data_Fe5H8C4N20OF7
_symmetry_space_group_name_H-M   'P 1'
_cell_length_a   6.66870000
_cell_length_b   12.24500000
_cell_length_c   9.03050000
_cell_angle_alpha   90.00000000
_cell_angle_beta   110.43900000
_cell_angle_gamma   90.00000000
_symmetry_Int_Tables_number   1
_chemical_formula_structural   Fe5H8C4N20OF7
_chemical_formula_sum   'Fe5 H8 C4 N20 O1 F7'
_cell_volume   690.99035606
_cell_formula_units_Z   1
loop_
 _symmetry_equiv_pos_site_id
 _symmetry_equiv_pos_as_xyz
  1  'x, y, z'
loop_
 _atom_site_type_symbol
 _atom_site_label
 _atom_site_symmetry_multiplicity
 _atom_site_fract_x
 _atom_site_fract_y
 _atom_site_fract_z
 _atom_site_occupancy
 _atom_site_charge
  Fe  Fe1  1  0.500000  0.000000  0.000000  1.0  1.0749
  Fe  Fe2  1  0.000000  0.000000  0.000000  1.0  1.0122
  Fe  Fe3  1  0.500000  0.365930  0.500000  1.0  1.095
  Fe  Fe4  1  0.500000  0.634070  0.500000  1.0  1.0961
  Fe  Fe5  1  0.000000  0.500000  0.500000  1.0  1.1886
  H  H6  1  0.879000  0.201100  0.218500  1.0  0.4133
  H  H7  1  0.999300  0.284000  0.337000  1.0  0.4363
  H  H8  1  0.121000  0.201100  0.781500  1.0  0.4139
  H  H9  1  0.000700  0.284000  0.663000  1.0  0.4368
  H  H10  1  0.121000  0.798900  0.781500  1.0  0.4137
  H  H11  1  0.000700  0.716000  0.663000  1.0  0.4375
  H  H12  1  0.879000  0.798900  0.218500  1.0  0.4135
  H  H13  1  0.999300  0.716000  0.337000  1.0  0.4373
  C  C14  1  0.204000  0.201800  0.242500  1.0  0.1286
  C  C15  1  0.796000  0.201800  0.757500  1.0  0.129
  C  C16  1  0.796000  0.798200  0.757500  1.0  0.1296
  C  C17  1  0.204000  0.798200  0.242500  1.0  0.1291
  N  N18  1  0.418000  0.123400  0.146800  1.0  -0.1092
  N  N19  1  0.209000  0.124800  0.140600  1.0  -0.3339
  N  N20  1  0.522000  0.196400  0.248900  1.0  -0.1658
  N  N21  1  0.399000  0.247900  0.312700  1.0  -0.2693
  N  N22  1  0.997100  0.233600  0.270000  1.0  -0.6322
  N  N23  1  0.582000  0.123400  0.853200  1.0  -0.1102
  N  N24  1  0.791000  0.124800  0.859400  1.0  -0.3338
  N  N25  1  0.478000  0.196400  0.751100  1.0  -0.164
  N  N26  1  0.601000  0.247900  0.687300  1.0  -0.27
  N  N27  1  0.002900  0.233600  0.730000  1.0  -0.6325
  N  N28  1  0.582000  0.876600  0.853200  1.0  -0.11
  N  N29  1  0.791000  0.875200  0.859400  1.0  -0.3333
  N  N30  1  0.478000  0.803600  0.751100  1.0  -0.1643
  N  N31  1  0.601000  0.752100  0.687300  1.0  -0.2699
  N  N32  1  0.002900  0.766400  0.730000  1.0  -0.6325
  N  N33  1  0.418000  0.876600  0.146800  1.0  -0.1092
  N  N34  1  0.209000  0.875200  0.140600  1.0  -0.3335
  N  N35  1  0.522000  0.803600  0.248900  1.0  -0.1657
  N  N36  1  0.399000  0.752100  0.312700  1.0  -0.2693
  N  N37  1  0.997100  0.766400  0.270000  1.0  -0.6318
  O  O38  1  0.587000  0.500000  0.660600  1.0  -0.5095
  F  F39  1  0.204100  0.384200  0.520600  1.0  -0.4194
  F  F40  1  0.795900  0.384200  0.479400  1.0  -0.42
  F  F41  1  0.795900  0.615800  0.479400  1.0  -0.4199
  F  F42  1  0.204100  0.615800  0.520600  1.0  -0.4192
  F  F43  1  0.190000  0.000000  0.863900  1.0  -0.3266
  F  F44  1  0.810000  0.000000  0.136100  1.0  -0.3276
  F  F45  1  0.413000  0.500000  0.339400  1.0  -0.5029
