# generated using pymatgen
data_Zn3H10C23N5O12
_symmetry_space_group_name_H-M   'P 1'
_cell_length_a   14.20790000
_cell_length_b   17.22950000
_cell_length_c   26.15840000
_cell_angle_alpha   88.76400000
_cell_angle_beta   74.47000000
_cell_angle_gamma   70.37700000
_symmetry_Int_Tables_number   1
_chemical_formula_structural   Zn3H10C23N5O12
_chemical_formula_sum   'Zn12 H40 C92 N20 O48'
_cell_volume   5794.83881399
_cell_formula_units_Z   4
loop_
 _symmetry_equiv_pos_site_id
 _symmetry_equiv_pos_as_xyz
  1  'x, y, z'
loop_
 _atom_site_type_symbol
 _atom_site_label
 _atom_site_symmetry_multiplicity
 _atom_site_fract_x
 _atom_site_fract_y
 _atom_site_fract_z
 _atom_site_occupancy
 _atom_site_charge
  Zn  Zn1  1  0.110050  0.799770  0.420050  1.0  1.0536
  Zn  Zn2  1  0.173060  0.619110  0.477820  1.0  1.0655
  Zn  Zn3  1  0.468960  0.218430  0.708650  1.0  1.0316
  Zn  Zn4  1  0.666200  0.116120  0.008830  1.0  0.9661
  Zn  Zn5  1  0.855840  0.278870  0.198510  1.0  0.9873
  Zn  Zn6  1  0.570250  0.313810  0.071350  1.0  1.0284
  Zn  Zn7  1  0.889950  0.200230  0.579950  1.0  1.0546
  Zn  Zn8  1  0.826940  0.380890  0.522180  1.0  1.066
  Zn  Zn9  1  0.531040  0.781570  0.291350  1.0  1.0313
  Zn  Zn10  1  0.333800  0.883880  0.991170  1.0  0.9658
  Zn  Zn11  1  0.144160  0.721130  0.801490  1.0  0.99
  Zn  Zn12  1  0.429750  0.686190  0.928650  1.0  1.0291
  H  H13  1  0.299000  0.842500  0.356300  1.0  0.0894
  H  H14  1  0.372900  0.491000  0.426500  1.0  0.0546
  H  H15  1  0.122600  0.738000  0.630400  1.0  0.1113
  H  H16  1  0.984900  0.959700  0.711500  1.0  0.1077
  H  H17  1  0.001900  0.939300  0.557900  1.0  0.1002
  H  H18  1  0.298700  0.390200  0.613600  1.0  0.0961
  H  H19  1  0.119200  0.248900  0.640800  1.0  0.1167
  H  H20  1  0.069300  0.434900  0.544700  1.0  0.1119
  H  H21  1  0.596200  0.212500  0.862900  1.0  0.1071
  H  H22  1  0.558000  0.417900  0.944600  1.0  0.1102
  H  H23  1  0.479000  0.433000  0.807800  1.0  0.101
  H  H24  1  0.117700  0.137300  0.101400  1.0  0.101
  H  H25  1  0.426000  0.085200  0.045000  1.0  0.0899
  H  H26  1  0.251900  0.299400  0.133200  1.0  0.1066
  H  H27  1  0.666000  0.326100  0.160000  1.0  0.0752
  H  H28  1  0.868000  0.011500  0.013200  1.0  0.0536
  H  H29  1  0.031300  0.020800  0.129500  1.0  0.3418
  H  H30  1  0.972100  0.100400  0.162500  1.0  0.3278
  H  H31  1  0.642300  0.515000  0.319100  1.0  0.3534
  H  H32  1  0.621000  0.603000  0.306600  1.0  0.3288
  H  H33  1  0.701000  0.157500  0.643700  1.0  0.0898
  H  H34  1  0.627100  0.509000  0.573500  1.0  0.0548
  H  H35  1  0.877400  0.262000  0.369600  1.0  0.1113
  H  H36  1  0.015100  0.040300  0.288500  1.0  0.1074
  H  H37  1  0.998100  0.060700  0.442100  1.0  0.0997
  H  H38  1  0.701300  0.609800  0.386400  1.0  0.0962
  H  H39  1  0.880800  0.751100  0.359200  1.0  0.1171
  H  H40  1  0.930700  0.565100  0.455300  1.0  0.1121
  H  H41  1  0.403800  0.787500  0.137100  1.0  0.1059
  H  H42  1  0.442000  0.582100  0.055400  1.0  0.1102
  H  H43  1  0.521000  0.567000  0.192200  1.0  0.1003
  H  H44  1  0.882300  0.862700  0.898600  1.0  0.0991
  H  H45  1  0.574000  0.914800  0.955000  1.0  0.0892
  H  H46  1  0.748100  0.700600  0.866800  1.0  0.1068
  H  H47  1  0.334000  0.673900  0.840000  1.0  0.075
  H  H48  1  0.132000  0.988500  0.986800  1.0  0.0522
  H  H49  1  0.968700  0.979200  0.870500  1.0  0.3413
  H  H50  1  0.027900  0.899600  0.837500  1.0  0.3268
  H  H51  1  0.357700  0.485000  0.680900  1.0  0.3554
  H  H52  1  0.379000  0.397000  0.693400  1.0  0.3286
  C  C53  1  0.326400  0.671000  0.395300  1.0  0.379
  C  C54  1  0.323800  0.787200  0.363200  1.0  0.2964
  C  C55  1  0.425500  0.661200  0.363300  1.0  0.042
  C  C56  1  0.502400  0.584400  0.353300  1.0  0.4199
  C  C57  1  0.384100  0.536000  0.409000  1.0  0.3339
  C  C58  1  0.057500  0.829400  0.588200  1.0  -0.1651
  C  C59  1  0.084200  0.794000  0.632300  1.0  0.0188
  C  C60  1  0.054100  0.841600  0.679000  1.0  -0.1515
  C  C61  1  0.005600  0.927100  0.679800  1.0  -0.0039
  C  C62  1  0.988200  0.963800  0.634200  1.0  -0.1342
  C  C63  1  0.013700  0.915200  0.588800  1.0  -0.0016
  C  C64  1  0.086900  0.779800  0.537200  1.0  0.7199
  C  C65  1  0.082900  0.809500  0.727500  1.0  0.6128
  C  C66  1  0.937500  0.055700  0.634700  1.0  0.6756
  C  C67  1  0.189900  0.420700  0.573100  1.0  -0.1402
  C  C68  1  0.245000  0.376000  0.607300  1.0  -0.0071
  C  C69  1  0.220200  0.310000  0.631900  1.0  -0.1581
  C  C70  1  0.137900  0.291700  0.624000  1.0  0.0043
  C  C71  1  0.083400  0.337700  0.590700  1.0  -0.1516
  C  C72  1  0.108500  0.403300  0.566000  1.0  -0.0472
  C  C73  1  0.214100  0.492800  0.545200  1.0  0.6964
  C  C74  1  0.279200  0.261600  0.668900  1.0  0.7154
  C  C75  1  0.995200  0.316100  0.581000  1.0  0.6859
  C  C76  1  0.527400  0.316500  0.829700  1.0  -0.1509
  C  C77  1  0.571600  0.269900  0.867500  1.0  0.0157
  C  C78  1  0.578600  0.307800  0.910600  1.0  -0.1525
  C  C79  1  0.553100  0.392300  0.914900  1.0  -0.0471
  C  C80  1  0.519500  0.440500  0.874100  1.0  -0.1144
  C  C81  1  0.504800  0.401700  0.833600  1.0  0.0101
  C  C82  1  0.511300  0.275600  0.785900  1.0  0.63
  C  C83  1  0.615600  0.260200  0.954700  1.0  0.7041
  C  C84  1  0.489600  0.533800  0.879900  1.0  0.6803
  C  C85  1  0.165300  0.231700  0.122400  1.0  -0.0945
  C  C86  1  0.175400  0.153100  0.098000  1.0  -0.0195
  C  C87  1  0.278300  0.100300  0.068200  1.0  -0.0764
  C  C88  1  0.360900  0.121100  0.063900  1.0  -0.0411
  C  C89  1  0.352500  0.197000  0.087500  1.0  -0.1622
  C  C90  1  0.256200  0.250400  0.116900  1.0  0.0176
  C  C91  1  0.065100  0.282800  0.153400  1.0  0.6499
  C  C92  1  0.283300  0.021600  0.043300  1.0  0.6817
  C  C93  1  0.827200  0.159100  0.116800  1.0  -0.009
  C  C94  1  0.449200  0.217700  0.080300  1.0  0.7235
  C  C95  1  0.707700  0.275700  0.141200  1.0  0.2373
  C  C96  1  0.761300  0.171000  0.086000  1.0  0.3999
  C  C97  1  0.855700  0.049600  0.041000  1.0  0.2944
  C  C98  1  0.910100  0.085400  0.107600  1.0  0.427
  C  C99  1  0.673600  0.329000  0.604700  1.0  0.3805
  C  C100  1  0.676200  0.212800  0.636800  1.0  0.2973
  C  C101  1  0.574500  0.338800  0.636700  1.0  0.0419
  C  C102  1  0.497600  0.415600  0.646700  1.0  0.4227
  C  C103  1  0.615900  0.464000  0.591000  1.0  0.3344
  C  C104  1  0.942500  0.170600  0.411800  1.0  -0.1651
  C  C105  1  0.915800  0.206000  0.367700  1.0  0.0172
  C  C106  1  0.945900  0.158400  0.321000  1.0  -0.1506
  C  C107  1  0.994400  0.072900  0.320200  1.0  -0.004
  C  C108  1  0.011800  0.036200  0.365800  1.0  -0.134
  C  C109  1  0.986300  0.084800  0.411200  1.0  -0.0005
  C  C110  1  0.913100  0.220200  0.462800  1.0  0.7203
  C  C111  1  0.917100  0.190500  0.272500  1.0  0.6121
  C  C112  1  0.062500  0.944300  0.365300  1.0  0.6755
  C  C113  1  0.810100  0.579300  0.426900  1.0  -0.1405
  C  C114  1  0.755000  0.624000  0.392700  1.0  -0.0069
  C  C115  1  0.779800  0.690000  0.368100  1.0  -0.1569
  C  C116  1  0.862100  0.708300  0.376000  1.0  0.0039
  C  C117  1  0.916600  0.662300  0.409300  1.0  -0.1511
  C  C118  1  0.891500  0.596700  0.434000  1.0  -0.0478
  C  C119  1  0.785900  0.507200  0.454800  1.0  0.697
  C  C120  1  0.720800  0.738400  0.331100  1.0  0.7168
  C  C121  1  0.004800  0.683900  0.419000  1.0  0.6869
  C  C122  1  0.472600  0.683500  0.170300  1.0  -0.1519
  C  C123  1  0.428400  0.730100  0.132500  1.0  0.0149
  C  C124  1  0.421400  0.692200  0.089400  1.0  -0.1522
  C  C125  1  0.446900  0.607700  0.085100  1.0  -0.0479
  C  C126  1  0.480500  0.559500  0.125900  1.0  -0.1162
  C  C127  1  0.495200  0.598300  0.166400  1.0  0.012
  C  C128  1  0.488700  0.724400  0.214100  1.0  0.6299
  C  C129  1  0.384400  0.739800  0.045300  1.0  0.7033
  C  C130  1  0.510400  0.466200  0.120100  1.0  0.6795
  C  C131  1  0.834700  0.768300  0.877600  1.0  -0.0959
  C  C132  1  0.824600  0.846900  0.902000  1.0  -0.0184
  C  C133  1  0.721700  0.899700  0.931800  1.0  -0.0751
  C  C134  1  0.639100  0.878900  0.936100  1.0  -0.0426
  C  C135  1  0.647500  0.803000  0.912500  1.0  -0.1625
  C  C136  1  0.743800  0.749600  0.883100  1.0  0.0177
  C  C137  1  0.934900  0.717200  0.846600  1.0  0.6523
  C  C138  1  0.716700  0.978400  0.956700  1.0  0.6805
  C  C139  1  0.172800  0.840900  0.883200  1.0  -0.0088
  C  C140  1  0.550800  0.782300  0.919700  1.0  0.724
  C  C141  1  0.292300  0.724300  0.858800  1.0  0.2382
  C  C142  1  0.238700  0.829000  0.914000  1.0  0.4022
  C  C143  1  0.144300  0.950400  0.959000  1.0  0.2952
  C  C144  1  0.089900  0.914600  0.892400  1.0  0.4281
  N  N145  1  0.926200  0.029600  0.067600  1.0  -0.4646
  N  N146  1  0.979600  0.066600  0.136800  1.0  -0.6714
  N  N147  1  0.793900  0.228400  0.152680  1.0  -0.3789
  N  N148  1  0.684600  0.246700  0.101500  1.0  -0.3614
  N  N149  1  0.769600  0.115400  0.047400  1.0  -0.2856
  N  N150  1  0.301300  0.607200  0.420600  1.0  -0.2189
  N  N151  1  0.262100  0.748600  0.395100  1.0  -0.3549
  N  N152  1  0.421800  0.739000  0.343100  1.0  -0.3963
  N  N153  1  0.600200  0.565200  0.322700  1.0  -0.7077
  N  N154  1  0.475700  0.520900  0.377400  1.0  -0.3947
  N  N155  1  0.073800  0.970400  0.932400  1.0  -0.4686
  N  N156  1  0.020400  0.933400  0.863200  1.0  -0.673
  N  N157  1  0.206100  0.771600  0.847320  1.0  -0.3821
  N  N158  1  0.315400  0.753300  0.898500  1.0  -0.3608
  N  N159  1  0.230400  0.884600  0.952600  1.0  -0.2849
  N  N160  1  0.698700  0.392800  0.579400  1.0  -0.2192
  N  N161  1  0.737900  0.251400  0.604900  1.0  -0.3567
  N  N162  1  0.578200  0.261000  0.656900  1.0  -0.3963
  N  N163  1  0.399800  0.434800  0.677300  1.0  -0.7088
  N  N164  1  0.524300  0.479100  0.622600  1.0  -0.3971
  O  O165  1  0.059500  0.813900  0.498390  1.0  -0.634
  O  O166  1  0.138200  0.701600  0.536110  1.0  -0.6065
  O  O167  1  0.131100  0.730300  0.727500  1.0  -0.5905
  O  O168  1  0.061300  0.849300  0.767600  1.0  -0.7211
  O  O169  1  0.890200  0.102800  0.675500  1.0  -0.4467
  O  O170  1  0.942700  0.084000  0.588460  1.0  -0.5965
  O  O171  1  0.273100  0.523600  0.559400  1.0  -0.5123
  O  O172  1  0.175500  0.514500  0.507650  1.0  -0.5728
  O  O173  1  0.944300  0.361300  0.551470  1.0  -0.6859
  O  O174  1  0.974400  0.253000  0.602080  1.0  -0.608
  O  O175  1  0.249800  0.208300  0.693800  1.0  -0.4516
  O  O176  1  0.358300  0.276700  0.671650  1.0  -0.5967
  O  O177  1  0.490200  0.571500  0.836200  1.0  -0.4678
  O  O178  1  0.469000  0.567200  0.924000  1.0  -0.5496
  O  O179  1  0.434600  0.317700  0.767100  1.0  -0.5821
  O  O180  1  0.559300  0.201100  0.770180  1.0  -0.5708
  O  O181  1  0.622000  0.300000  0.993610  1.0  -0.6585
  O  O182  1  0.634600  0.184900  0.950300  1.0  -0.5798
  O  O183  1  0.059500  0.337700  0.187000  1.0  -0.5102
  O  O184  1  0.986400  0.270800  0.146500  1.0  -0.6012
  O  O185  1  0.213100  0.991400  0.057400  1.0  -0.6481
  O  O186  1  0.364200  0.985500  0.005900  1.0  -0.5808
  O  O187  1  0.533600  0.163700  0.068400  1.0  -0.6595
  O  O188  1  0.435600  0.295900  0.088400  1.0  -0.5949
  O  O189  1  0.940500  0.186100  0.501610  1.0  -0.6343
  O  O190  1  0.861800  0.298400  0.463890  1.0  -0.6067
  O  O191  1  0.868900  0.269700  0.272500  1.0  -0.5896
  O  O192  1  0.938700  0.150700  0.232400  1.0  -0.72
  O  O193  1  0.109800  0.897200  0.324500  1.0  -0.4482
  O  O194  1  0.057300  0.916000  0.411540  1.0  -0.5975
  O  O195  1  0.726900  0.476400  0.440600  1.0  -0.5127
  O  O196  1  0.824500  0.485500  0.492350  1.0  -0.5736
  O  O197  1  0.055700  0.638700  0.448530  1.0  -0.6849
  O  O198  1  0.025600  0.747000  0.397920  1.0  -0.6071
  O  O199  1  0.750200  0.791700  0.306200  1.0  -0.4492
  O  O200  1  0.641700  0.723300  0.328350  1.0  -0.5943
  O  O201  1  0.509800  0.428500  0.163800  1.0  -0.4658
  O  O202  1  0.531000  0.432800  0.076000  1.0  -0.5504
  O  O203  1  0.565400  0.682300  0.232900  1.0  -0.5812
  O  O204  1  0.440700  0.798900  0.229820  1.0  -0.5707
  O  O205  1  0.378000  0.700000  0.006390  1.0  -0.6597
  O  O206  1  0.365400  0.815100  0.049700  1.0  -0.5796
  O  O207  1  0.940500  0.662300  0.813000  1.0  -0.5124
  O  O208  1  0.013600  0.729200  0.853500  1.0  -0.602
  O  O209  1  0.786900  0.008600  0.942600  1.0  -0.6496
  O  O210  1  0.635800  0.014500  0.994100  1.0  -0.5803
  O  O211  1  0.466400  0.836300  0.931600  1.0  -0.66
  O  O212  1  0.564400  0.704100  0.911600  1.0  -0.5942
