# generated using pymatgen
data_Ba2CuH8C12(N2O5)2
_symmetry_space_group_name_H-M   'P 1'
_cell_length_a   18.68500000
_cell_length_b   11.72200000
_cell_length_c   9.24400000
_cell_angle_alpha   90.00000000
_cell_angle_beta   91.77100000
_cell_angle_gamma   90.00000000
_symmetry_Int_Tables_number   1
_chemical_formula_structural   Ba2CuH8C12(N2O5)2
_chemical_formula_sum   'Ba8 Cu4 H32 C48 N16 O40'
_cell_volume   2023.70524535
_cell_formula_units_Z   4
loop_
 _symmetry_equiv_pos_site_id
 _symmetry_equiv_pos_as_xyz
  1  'x, y, z'
loop_
 _atom_site_type_symbol
 _atom_site_label
 _atom_site_symmetry_multiplicity
 _atom_site_fract_x
 _atom_site_fract_y
 _atom_site_fract_z
 _atom_site_occupancy
 _atom_site_charge
  Ba  Ba1  1  0.477900  0.691630  0.507730  1.0  1.5895
  Ba  Ba2  1  0.977900  0.191630  0.507730  1.0  1.5895
  Ba  Ba3  1  0.522100  0.691630  0.992270  1.0  1.5885
  Ba  Ba4  1  0.022100  0.191630  0.992270  1.0  1.5885
  Ba  Ba5  1  0.522100  0.308370  0.492270  1.0  1.5886
  Ba  Ba6  1  0.022100  0.808370  0.492270  1.0  1.5886
  Ba  Ba7  1  0.477900  0.308370  0.007730  1.0  1.5891
  Ba  Ba8  1  0.977900  0.808370  0.007730  1.0  1.5891
  Cu  Cu9  1  0.750000  0.750000  0.500000  1.0  1.3015
  Cu  Cu10  1  0.250000  0.750000  0.000000  1.0  1.3015
  Cu  Cu11  1  0.250000  0.250000  0.500000  1.0  1.3015
  Cu  Cu12  1  0.750000  0.250000  0.000000  1.0  1.3015
  H  H13  1  0.850400  0.427700  0.207600  1.0  0.0631
  H  H14  1  0.334200  0.760700  0.420100  1.0  0.3789
  H  H15  1  0.358100  0.814900  0.559700  1.0  0.3743
  H  H16  1  0.858600  0.579800  0.370600  1.0  0.049
  H  H17  1  0.350400  0.927700  0.207600  1.0  0.0631
  H  H18  1  0.834200  0.260700  0.420100  1.0  0.3789
  H  H19  1  0.858100  0.314900  0.559700  1.0  0.3743
  H  H20  1  0.358600  0.079800  0.370600  1.0  0.049
  H  H21  1  0.149600  0.427700  0.292400  1.0  0.0624
  H  H22  1  0.665800  0.760700  0.079900  1.0  0.3805
  H  H23  1  0.641900  0.814900  0.940300  1.0  0.3741
  H  H24  1  0.141400  0.579800  0.129400  1.0  0.0504
  H  H25  1  0.649600  0.927700  0.292400  1.0  0.0624
  H  H26  1  0.165800  0.260700  0.079900  1.0  0.3803
  H  H27  1  0.141900  0.314900  0.940300  1.0  0.3741
  H  H28  1  0.641400  0.079800  0.129400  1.0  0.0504
  H  H29  1  0.149600  0.572300  0.792400  1.0  0.0621
  H  H30  1  0.665800  0.239300  0.579900  1.0  0.3804
  H  H31  1  0.641900  0.185100  0.440300  1.0  0.3739
  H  H32  1  0.141400  0.420200  0.629400  1.0  0.0503
  H  H33  1  0.649600  0.072300  0.792400  1.0  0.0621
  H  H34  1  0.165800  0.739300  0.579900  1.0  0.3805
  H  H35  1  0.141900  0.685100  0.440300  1.0  0.3739
  H  H36  1  0.641400  0.920200  0.629400  1.0  0.0503
  H  H37  1  0.850400  0.572300  0.707600  1.0  0.063
  H  H38  1  0.334200  0.239300  0.920100  1.0  0.3791
  H  H39  1  0.358100  0.185100  0.059700  1.0  0.3751
  H  H40  1  0.858600  0.420200  0.870600  1.0  0.0491
  H  H41  1  0.350400  0.072300  0.707600  1.0  0.063
  H  H42  1  0.834200  0.739300  0.920100  1.0  0.379
  H  H43  1  0.858100  0.685100  0.059700  1.0  0.3751
  H  H44  1  0.358600  0.920200  0.870600  1.0  0.0491
  C  C45  1  0.634000  0.670600  0.342300  1.0  0.5977
  C  C46  1  0.685100  0.494300  0.217100  1.0  -0.0296
  C  C47  1  0.692800  0.592000  0.300200  1.0  0.0274
  C  C48  1  0.809200  0.465700  0.234600  1.0  0.1048
  C  C49  1  0.613500  0.450100  0.164400  1.0  0.6405
  C  C50  1  0.814400  0.561100  0.327800  1.0  0.1072
  C  C51  1  0.134000  0.170600  0.342300  1.0  0.5977
  C  C52  1  0.185100  0.994300  0.217100  1.0  -0.0296
  C  C53  1  0.192800  0.092000  0.300200  1.0  0.0274
  C  C54  1  0.309200  0.965700  0.234600  1.0  0.1048
  C  C55  1  0.113500  0.950100  0.164400  1.0  0.6405
  C  C56  1  0.314400  0.061100  0.327800  1.0  0.1072
  C  C57  1  0.366000  0.670600  0.157700  1.0  0.599
  C  C58  1  0.314900  0.494300  0.282900  1.0  -0.0304
  C  C59  1  0.307200  0.592000  0.199800  1.0  0.027
  C  C60  1  0.190800  0.465700  0.265400  1.0  0.1067
  C  C61  1  0.386500  0.450100  0.335600  1.0  0.6403
  C  C62  1  0.185600  0.561100  0.172200  1.0  0.1068
  C  C63  1  0.866000  0.170600  0.157700  1.0  0.599
  C  C64  1  0.814900  0.994300  0.282900  1.0  -0.0304
  C  C65  1  0.807200  0.092000  0.199800  1.0  0.027
  C  C66  1  0.690800  0.965700  0.265400  1.0  0.1067
  C  C67  1  0.886500  0.950100  0.335600  1.0  0.6403
  C  C68  1  0.685600  0.061100  0.172200  1.0  0.1068
  C  C69  1  0.366000  0.329400  0.657700  1.0  0.5992
  C  C70  1  0.314900  0.505700  0.782900  1.0  -0.0302
  C  C71  1  0.307200  0.408000  0.699800  1.0  0.0272
  C  C72  1  0.190800  0.534300  0.765400  1.0  0.1066
  C  C73  1  0.386500  0.549900  0.835600  1.0  0.6412
  C  C74  1  0.185600  0.438900  0.672200  1.0  0.1071
  C  C75  1  0.866000  0.829400  0.657700  1.0  0.5992
  C  C76  1  0.814900  0.005700  0.782900  1.0  -0.0302
  C  C77  1  0.807200  0.908000  0.699800  1.0  0.0272
  C  C78  1  0.690800  0.034300  0.765400  1.0  0.1066
  C  C79  1  0.886500  0.049900  0.835600  1.0  0.6412
  C  C80  1  0.685600  0.938900  0.672200  1.0  0.1071
  C  C81  1  0.634000  0.329400  0.842300  1.0  0.5975
  C  C82  1  0.685100  0.505700  0.717100  1.0  -0.0293
  C  C83  1  0.692800  0.408000  0.800200  1.0  0.0275
  C  C84  1  0.809200  0.534300  0.734600  1.0  0.1049
  C  C85  1  0.613500  0.549900  0.664400  1.0  0.6419
  C  C86  1  0.814400  0.438900  0.827800  1.0  0.1073
  C  C87  1  0.134000  0.829400  0.842300  1.0  0.5975
  C  C88  1  0.185100  0.005700  0.717100  1.0  -0.0293
  C  C89  1  0.192800  0.908000  0.800200  1.0  0.0275
  C  C90  1  0.309200  0.034300  0.734600  1.0  0.1049
  C  C91  1  0.113500  0.049900  0.664400  1.0  0.6419
  C  C92  1  0.314400  0.938900  0.827800  1.0  0.1073
  N  N93  1  0.758200  0.623900  0.355300  1.0  -0.3405
  N  N94  1  0.744300  0.429600  0.184700  1.0  -0.4541
  N  N95  1  0.258200  0.123900  0.355300  1.0  -0.3405
  N  N96  1  0.244300  0.929600  0.184700  1.0  -0.4541
  N  N97  1  0.241800  0.623900  0.144700  1.0  -0.341
  N  N98  1  0.255700  0.429600  0.315300  1.0  -0.4535
  N  N99  1  0.741800  0.123900  0.144700  1.0  -0.341
  N  N100  1  0.755700  0.929600  0.315300  1.0  -0.4535
  N  N101  1  0.241800  0.376100  0.644700  1.0  -0.3401
  N  N102  1  0.255700  0.570400  0.815300  1.0  -0.4549
  N  N103  1  0.741800  0.876100  0.644700  1.0  -0.3401
  N  N104  1  0.755700  0.070400  0.815300  1.0  -0.4549
  N  N105  1  0.758200  0.376100  0.855300  1.0  -0.3397
  N  N106  1  0.744300  0.570400  0.684700  1.0  -0.4545
  N  N107  1  0.258200  0.876100  0.855300  1.0  -0.3397
  N  N108  1  0.244300  0.070400  0.684700  1.0  -0.4545
  O  O109  1  0.326200  0.783700  0.510700  1.0  -0.8154
  O  O110  1  0.573700  0.663900  0.281400  1.0  -0.7673
  O  O111  1  0.649500  0.743700  0.441500  1.0  -0.6772
  O  O112  1  0.587600  0.489700  0.042900  1.0  -0.8068
  O  O113  1  0.584400  0.375600  0.236600  1.0  -0.6975
  O  O114  1  0.826200  0.283700  0.510700  1.0  -0.8147
  O  O115  1  0.073700  0.163900  0.281400  1.0  -0.7673
  O  O116  1  0.149500  0.243700  0.441500  1.0  -0.6772
  O  O117  1  0.087600  0.989700  0.042900  1.0  -0.8068
  O  O118  1  0.084400  0.875600  0.236600  1.0  -0.6975
  O  O119  1  0.673800  0.783700  0.989300  1.0  -0.8156
  O  O120  1  0.426300  0.663900  0.218600  1.0  -0.7673
  O  O121  1  0.350500  0.743700  0.058500  1.0  -0.6761
  O  O122  1  0.412400  0.489700  0.457100  1.0  -0.8047
  O  O123  1  0.415600  0.375600  0.263400  1.0  -0.6982
  O  O124  1  0.173800  0.283700  0.989300  1.0  -0.8145
  O  O125  1  0.926300  0.163900  0.218600  1.0  -0.7673
  O  O126  1  0.850500  0.243700  0.058500  1.0  -0.6761
  O  O127  1  0.912400  0.989700  0.457100  1.0  -0.8047
  O  O128  1  0.915600  0.875600  0.263400  1.0  -0.6982
  O  O129  1  0.673800  0.216300  0.489300  1.0  -0.8143
  O  O130  1  0.426300  0.336100  0.718600  1.0  -0.7678
  O  O131  1  0.350500  0.256300  0.558500  1.0  -0.6772
  O  O132  1  0.412400  0.510300  0.957100  1.0  -0.8011
  O  O133  1  0.415600  0.624400  0.763400  1.0  -0.6979
  O  O134  1  0.173800  0.716300  0.489300  1.0  -0.8141
  O  O135  1  0.926300  0.836100  0.718600  1.0  -0.7678
  O  O136  1  0.850500  0.756300  0.558500  1.0  -0.6772
  O  O137  1  0.912400  0.010300  0.957100  1.0  -0.8011
  O  O138  1  0.915600  0.124400  0.763400  1.0  -0.6979
  O  O139  1  0.326200  0.216300  0.010700  1.0  -0.815
  O  O140  1  0.573700  0.336100  0.781400  1.0  -0.7668
  O  O141  1  0.649500  0.256300  0.941500  1.0  -0.6771
  O  O142  1  0.587600  0.510300  0.542900  1.0  -0.803
  O  O143  1  0.584400  0.624400  0.736600  1.0  -0.6991
  O  O144  1  0.826200  0.716300  0.010700  1.0  -0.8148
  O  O145  1  0.073700  0.836100  0.781400  1.0  -0.7668
  O  O146  1  0.149500  0.756300  0.941500  1.0  -0.6771
  O  O147  1  0.087600  0.010300  0.542900  1.0  -0.803
  O  O148  1  0.084400  0.124400  0.736600  1.0  -0.6991
