# generated using pymatgen
data_MnCu2Mo6H20C18I2(NO6)2
_symmetry_space_group_name_H-M   'P 1'
_cell_length_a   37.68980000
_cell_length_b   37.68980000
_cell_length_c   14.25760000
_cell_angle_alpha   90.00000000
_cell_angle_beta   90.00000000
_cell_angle_gamma   90.00000000
_symmetry_Int_Tables_number   1
_chemical_formula_structural   MnCu2Mo6H20C18I2(NO6)2
_chemical_formula_sum   'Mn8 Cu16 Mo48 H160 C144 I16 N16 O96'
_cell_volume   20253.22055235
_cell_formula_units_Z   8
loop_
 _symmetry_equiv_pos_site_id
 _symmetry_equiv_pos_as_xyz
  1  'x, y, z'
loop_
 _atom_site_type_symbol
 _atom_site_label
 _atom_site_symmetry_multiplicity
 _atom_site_fract_x
 _atom_site_fract_y
 _atom_site_fract_z
 _atom_site_occupancy
 _atom_site_charge
  Mn  Mn1  1  0.751070  0.001040  0.353180  1.0  0.5591
  Mn  Mn2  1  0.248930  0.998960  0.853180  1.0  0.5578
  Mn  Mn3  1  0.498960  0.251070  0.103180  1.0  0.5582
  Mn  Mn4  1  0.501040  0.748930  0.603180  1.0  0.5587
  Mn  Mn5  1  0.748930  0.501040  0.396820  1.0  0.5583
  Mn  Mn6  1  0.251070  0.498960  0.896820  1.0  0.5587
  Mn  Mn7  1  0.001040  0.751070  0.646820  1.0  0.559
  Mn  Mn8  1  0.998960  0.248930  0.146820  1.0  0.5579
  Cu  Cu9  1  0.741810  0.716560  0.079920  1.0  0.1978
  Cu  Cu10  1  0.741080  0.784020  0.044240  1.0  0.1993
  Cu  Cu11  1  0.258190  0.283440  0.579920  1.0  0.1972
  Cu  Cu12  1  0.258920  0.215980  0.544240  1.0  0.2008
  Cu  Cu13  1  0.783440  0.241810  0.829920  1.0  0.1979
  Cu  Cu14  1  0.715980  0.241080  0.794240  1.0  0.201
  Cu  Cu15  1  0.216560  0.758190  0.329920  1.0  0.1987
  Cu  Cu16  1  0.284020  0.758920  0.294240  1.0  0.2007
  Cu  Cu17  1  0.758190  0.216560  0.670080  1.0  0.1983
  Cu  Cu18  1  0.758920  0.284020  0.705760  1.0  0.1999
  Cu  Cu19  1  0.241810  0.783440  0.170080  1.0  0.1968
  Cu  Cu20  1  0.241080  0.715980  0.205760  1.0  0.2006
  Cu  Cu21  1  0.716560  0.741810  0.920080  1.0  0.1988
  Cu  Cu22  1  0.784020  0.741080  0.955760  1.0  0.2008
  Cu  Cu23  1  0.283440  0.258190  0.420080  1.0  0.198
  Cu  Cu24  1  0.215980  0.258920  0.455760  1.0  0.2013
  Mo  Mo25  1  0.703740  0.039590  0.182310  1.0  0.7305
  Mo  Mo26  1  0.662570  0.006220  0.371340  1.0  0.73
  Mo  Mo27  1  0.709480  0.967180  0.541640  1.0  0.7102
  Mo  Mo28  1  0.792250  0.033860  0.163070  1.0  0.7358
  Mo  Mo29  1  0.839610  0.995710  0.334600  1.0  0.7199
  Mo  Mo30  1  0.797810  0.962940  0.524870  1.0  0.7318
  Mo  Mo31  1  0.296260  0.960410  0.682310  1.0  0.7362
  Mo  Mo32  1  0.337430  0.993780  0.871340  1.0  0.7292
  Mo  Mo33  1  0.290520  0.032820  0.041640  1.0  0.7099
  Mo  Mo34  1  0.207750  0.966140  0.663070  1.0  0.7414
  Mo  Mo35  1  0.160390  0.004290  0.834600  1.0  0.7336
  Mo  Mo36  1  0.202190  0.037060  0.024870  1.0  0.7337
  Mo  Mo37  1  0.460410  0.203740  0.932310  1.0  0.7403
  Mo  Mo38  1  0.493780  0.162570  0.121340  1.0  0.7483
  Mo  Mo39  1  0.532820  0.209480  0.291640  1.0  0.7086
  Mo  Mo40  1  0.466140  0.292250  0.913070  1.0  0.727
  Mo  Mo41  1  0.504290  0.339610  0.084600  1.0  0.7377
  Mo  Mo42  1  0.537060  0.297810  0.274870  1.0  0.733
  Mo  Mo43  1  0.539590  0.796260  0.432310  1.0  0.7341
  Mo  Mo44  1  0.506220  0.837430  0.621340  1.0  0.7515
  Mo  Mo45  1  0.467180  0.790520  0.791640  1.0  0.7101
  Mo  Mo46  1  0.533860  0.707750  0.413070  1.0  0.7303
  Mo  Mo47  1  0.495710  0.660390  0.584600  1.0  0.7276
  Mo  Mo48  1  0.462940  0.702190  0.774870  1.0  0.732
  Mo  Mo49  1  0.796260  0.539590  0.567690  1.0  0.7369
  Mo  Mo50  1  0.837430  0.506220  0.378660  1.0  0.7448
  Mo  Mo51  1  0.790520  0.467180  0.208360  1.0  0.7096
  Mo  Mo52  1  0.707750  0.533860  0.586930  1.0  0.7335
  Mo  Mo53  1  0.660390  0.495710  0.415400  1.0  0.7263
  Mo  Mo54  1  0.702190  0.462940  0.225130  1.0  0.7356
  Mo  Mo55  1  0.203740  0.460410  0.067690  1.0  0.7383
  Mo  Mo56  1  0.162570  0.493780  0.878660  1.0  0.7446
  Mo  Mo57  1  0.209480  0.532820  0.708360  1.0  0.7075
  Mo  Mo58  1  0.292250  0.466140  0.086930  1.0  0.7294
  Mo  Mo59  1  0.339610  0.504290  0.915400  1.0  0.733
  Mo  Mo60  1  0.297810  0.537060  0.725130  1.0  0.7325
  Mo  Mo61  1  0.039590  0.703740  0.817690  1.0  0.7291
  Mo  Mo62  1  0.006220  0.662570  0.628660  1.0  0.734
  Mo  Mo63  1  0.967180  0.709480  0.458360  1.0  0.7108
  Mo  Mo64  1  0.033860  0.792250  0.836930  1.0  0.7406
  Mo  Mo65  1  0.995710  0.839610  0.665400  1.0  0.726
  Mo  Mo66  1  0.962940  0.797810  0.475130  1.0  0.7326
  Mo  Mo67  1  0.960410  0.296260  0.317690  1.0  0.7346
  Mo  Mo68  1  0.993780  0.337430  0.128660  1.0  0.7361
  Mo  Mo69  1  0.032820  0.290520  0.958360  1.0  0.7072
  Mo  Mo70  1  0.966140  0.207750  0.336930  1.0  0.7411
  Mo  Mo71  1  0.004290  0.160390  0.165400  1.0  0.7373
  Mo  Mo72  1  0.037060  0.202190  0.975130  1.0  0.7367
  H  H73  1  0.736200  0.094000  0.329700  1.0  0.1603
  H  H74  1  0.778300  0.089100  0.325200  1.0  0.1695
  H  H75  1  0.710500  0.956200  0.159800  1.0  0.1366
  H  H76  1  0.690100  0.939800  0.248300  1.0  0.1499
  H  H77  1  0.799500  0.932800  0.231800  1.0  0.1623
  H  H78  1  0.777100  0.950700  0.149200  1.0  0.1499
  H  H79  1  0.810300  0.062400  0.462000  1.0  0.1428
  H  H80  1  0.788500  0.044800  0.545900  1.0  0.1409
  H  H81  1  0.725200  0.051500  0.557800  1.0  0.1671
  H  H82  1  0.702900  0.069300  0.475100  1.0  0.1459
  H  H83  1  0.724100  0.911900  0.379500  1.0  0.1373
  H  H84  1  0.766400  0.908200  0.375700  1.0  0.1601
  H  H85  1  0.733700  0.862700  0.994000  1.0  0.1642
  H  H86  1  0.736700  0.915100  0.071000  1.0  0.1497
  H  H87  1  0.718300  0.182400  0.508200  1.0  0.1376
  H  H88  1  0.801800  0.097900  0.580700  1.0  0.1621
  H  H89  1  0.719100  0.129200  0.425400  1.0  0.1865
  H  H90  1  0.803900  0.154000  0.646800  1.0  0.1373
  H  H91  1  0.740200  0.811100  0.230800  1.0  0.1168
  H  H92  1  0.742800  0.863000  0.316000  1.0  0.156
  H  H93  1  0.263800  0.906000  0.829700  1.0  0.1576
  H  H94  1  0.221700  0.910900  0.825200  1.0  0.1675
  H  H95  1  0.289500  0.043800  0.659800  1.0  0.1369
  H  H96  1  0.309900  0.060200  0.748300  1.0  0.1521
  H  H97  1  0.200500  0.067200  0.731800  1.0  0.1639
  H  H98  1  0.222900  0.049300  0.649200  1.0  0.1486
  H  H99  1  0.189700  0.937600  0.962000  1.0  0.1426
  H  H100  1  0.211500  0.955200  0.045900  1.0  0.1416
  H  H101  1  0.274800  0.948500  0.057800  1.0  0.1662
  H  H102  1  0.297100  0.930700  0.975100  1.0  0.143
  H  H103  1  0.275900  0.088100  0.879500  1.0  0.1372
  H  H104  1  0.233600  0.091800  0.875700  1.0  0.161
  H  H105  1  0.266300  0.137300  0.494000  1.0  0.1641
  H  H106  1  0.263300  0.084900  0.571000  1.0  0.1501
  H  H107  1  0.281700  0.817600  0.008200  1.0  0.1373
  H  H108  1  0.198200  0.902100  0.080700  1.0  0.1615
  H  H109  1  0.280900  0.870800  0.925400  1.0  0.1865
  H  H110  1  0.196100  0.846000  0.146800  1.0  0.1368
  H  H111  1  0.259800  0.188900  0.730800  1.0  0.1174
  H  H112  1  0.257200  0.137000  0.816000  1.0  0.1562
  H  H113  1  0.406000  0.236200  0.079700  1.0  0.1592
  H  H114  1  0.410900  0.278300  0.075200  1.0  0.1691
  H  H115  1  0.543800  0.210500  0.909800  1.0  0.1343
  H  H116  1  0.560200  0.190100  0.998300  1.0  0.1524
  H  H117  1  0.567200  0.299500  0.981800  1.0  0.1636
  H  H118  1  0.549300  0.277100  0.899200  1.0  0.148
  H  H119  1  0.437600  0.310300  0.212000  1.0  0.1435
  H  H120  1  0.455200  0.288500  0.295900  1.0  0.1439
  H  H121  1  0.448500  0.225200  0.307800  1.0  0.1664
  H  H122  1  0.430700  0.202900  0.225100  1.0  0.1476
  H  H123  1  0.588100  0.224100  0.129500  1.0  0.1393
  H  H124  1  0.591800  0.266400  0.125700  1.0  0.1608
  H  H125  1  0.637300  0.233700  0.744000  1.0  0.1649
  H  H126  1  0.584900  0.236700  0.821000  1.0  0.1507
  H  H127  1  0.317600  0.218300  0.258200  1.0  0.1371
  H  H128  1  0.402100  0.301800  0.330700  1.0  0.163
  H  H129  1  0.370800  0.219100  0.175400  1.0  0.1843
  H  H130  1  0.346000  0.303900  0.396800  1.0  0.1367
  H  H131  1  0.688900  0.240200  0.980800  1.0  0.1199
  H  H132  1  0.637000  0.242800  0.066000  1.0  0.1574
  H  H133  1  0.594000  0.763800  0.579700  1.0  0.1609
  H  H134  1  0.589100  0.721700  0.575200  1.0  0.1693
  H  H135  1  0.456200  0.789500  0.409800  1.0  0.1353
  H  H136  1  0.439800  0.809900  0.498300  1.0  0.1561
  H  H137  1  0.432800  0.700500  0.481800  1.0  0.1628
  H  H138  1  0.450700  0.722900  0.399200  1.0  0.1474
  H  H139  1  0.562400  0.689700  0.712000  1.0  0.1407
  H  H140  1  0.544800  0.711500  0.795900  1.0  0.1436
  H  H141  1  0.551500  0.774800  0.807800  1.0  0.1661
  H  H142  1  0.569300  0.797100  0.725100  1.0  0.1481
  H  H143  1  0.411900  0.775900  0.629500  1.0  0.1392
  H  H144  1  0.408200  0.733600  0.625700  1.0  0.1623
  H  H145  1  0.362700  0.766300  0.244000  1.0  0.1646
  H  H146  1  0.415100  0.763300  0.321000  1.0  0.1504
  H  H147  1  0.682400  0.781700  0.758200  1.0  0.1372
  H  H148  1  0.597900  0.698200  0.830700  1.0  0.1626
  H  H149  1  0.629200  0.780900  0.675400  1.0  0.1873
  H  H150  1  0.654000  0.696100  0.896800  1.0  0.1369
  H  H151  1  0.311100  0.759800  0.480800  1.0  0.1201
  H  H152  1  0.363000  0.757200  0.566000  1.0  0.1576
  H  H153  1  0.763800  0.594000  0.420300  1.0  0.1601
  H  H154  1  0.721700  0.589100  0.424800  1.0  0.1685
  H  H155  1  0.789500  0.456200  0.590200  1.0  0.1338
  H  H156  1  0.809900  0.439800  0.501700  1.0  0.1522
  H  H157  1  0.700500  0.432800  0.518200  1.0  0.1627
  H  H158  1  0.722900  0.450700  0.600800  1.0  0.148
  H  H159  1  0.689700  0.562400  0.288000  1.0  0.1404
  H  H160  1  0.711500  0.544800  0.204100  1.0  0.1434
  H  H161  1  0.774800  0.551500  0.192200  1.0  0.167
  H  H162  1  0.797100  0.569300  0.274900  1.0  0.1439
  H  H163  1  0.775900  0.411900  0.370500  1.0  0.138
  H  H164  1  0.733600  0.408200  0.374300  1.0  0.1593
  H  H165  1  0.766300  0.362700  0.756000  1.0  0.1641
  H  H166  1  0.763300  0.415100  0.679000  1.0  0.148
  H  H167  1  0.781700  0.682400  0.241800  1.0  0.1371
  H  H168  1  0.698200  0.597900  0.169300  1.0  0.1621
  H  H169  1  0.780900  0.629200  0.324600  1.0  0.1878
  H  H170  1  0.696100  0.654000  0.103200  1.0  0.1366
  H  H171  1  0.759800  0.311100  0.519200  1.0  0.1172
  H  H172  1  0.757200  0.363000  0.434000  1.0  0.1563
  H  H173  1  0.236200  0.406000  0.920300  1.0  0.16
  H  H174  1  0.278300  0.410900  0.924800  1.0  0.1684
  H  H175  1  0.210500  0.543800  0.090200  1.0  0.1352
  H  H176  1  0.190100  0.560200  0.001700  1.0  0.1512
  H  H177  1  0.299500  0.567200  0.018200  1.0  0.1628
  H  H178  1  0.277100  0.549300  0.100800  1.0  0.1476
  H  H179  1  0.310300  0.437600  0.788000  1.0  0.1398
  H  H180  1  0.288500  0.455200  0.704100  1.0  0.1451
  H  H181  1  0.225200  0.448500  0.692200  1.0  0.1666
  H  H182  1  0.202900  0.430700  0.774900  1.0  0.1456
  H  H183  1  0.224100  0.588100  0.870500  1.0  0.1366
  H  H184  1  0.266400  0.591800  0.874300  1.0  0.161
  H  H185  1  0.233700  0.637300  0.256000  1.0  0.1638
  H  H186  1  0.236700  0.584900  0.179000  1.0  0.1491
  H  H187  1  0.218300  0.317600  0.741800  1.0  0.1377
  H  H188  1  0.301800  0.402100  0.669300  1.0  0.1623
  H  H189  1  0.219100  0.370800  0.824600  1.0  0.1873
  H  H190  1  0.303900  0.346000  0.603200  1.0  0.1369
  H  H191  1  0.240200  0.688900  0.019200  1.0  0.1178
  H  H192  1  0.242800  0.637000  0.934000  1.0  0.1562
  H  H193  1  0.094000  0.736200  0.670300  1.0  0.1617
  H  H194  1  0.089100  0.778300  0.674800  1.0  0.1687
  H  H195  1  0.956200  0.710500  0.840200  1.0  0.1339
  H  H196  1  0.939800  0.690100  0.751700  1.0  0.1512
  H  H197  1  0.932800  0.799500  0.768200  1.0  0.1629
  H  H198  1  0.950700  0.777100  0.850800  1.0  0.1461
  H  H199  1  0.062400  0.810300  0.538000  1.0  0.1442
  H  H200  1  0.044800  0.788500  0.454100  1.0  0.1445
  H  H201  1  0.051500  0.725200  0.442200  1.0  0.1659
  H  H202  1  0.069300  0.702900  0.524900  1.0  0.1463
  H  H203  1  0.911900  0.724100  0.620500  1.0  0.1379
  H  H204  1  0.908200  0.766400  0.624300  1.0  0.1622
  H  H205  1  0.862700  0.733700  0.006000  1.0  0.1643
  H  H206  1  0.915100  0.736700  0.929000  1.0  0.1498
  H  H207  1  0.182400  0.718300  0.491800  1.0  0.1371
  H  H208  1  0.097900  0.801800  0.419300  1.0  0.1632
  H  H209  1  0.129200  0.719100  0.574600  1.0  0.1867
  H  H210  1  0.154000  0.803900  0.353200  1.0  0.1366
  H  H211  1  0.811100  0.740200  0.769200  1.0  0.1202
  H  H212  1  0.863000  0.742800  0.684000  1.0  0.157
  H  H213  1  0.906000  0.263800  0.170300  1.0  0.1615
  H  H214  1  0.910900  0.221700  0.174800  1.0  0.1696
  H  H215  1  0.043800  0.289500  0.340200  1.0  0.1342
  H  H216  1  0.060200  0.309900  0.251700  1.0  0.156
  H  H217  1  0.067200  0.200500  0.268200  1.0  0.1633
  H  H218  1  0.049300  0.222900  0.350800  1.0  0.1461
  H  H219  1  0.937600  0.189700  0.038000  1.0  0.1428
  H  H220  1  0.955200  0.211500  0.954100  1.0  0.1445
  H  H221  1  0.948500  0.274800  0.942200  1.0  0.1659
  H  H222  1  0.930700  0.297100  0.024900  1.0  0.1486
  H  H223  1  0.088100  0.275900  0.120500  1.0  0.1387
  H  H224  1  0.091800  0.233600  0.124300  1.0  0.1618
  H  H225  1  0.137300  0.266300  0.506000  1.0  0.1647
  H  H226  1  0.084900  0.263300  0.429000  1.0  0.1496
  H  H227  1  0.817600  0.281700  0.991800  1.0  0.1376
  H  H228  1  0.902100  0.198200  0.919300  1.0  0.1622
  H  H229  1  0.870800  0.280900  0.074600  1.0  0.1873
  H  H230  1  0.846000  0.196100  0.853200  1.0  0.1358
  H  H231  1  0.188900  0.259800  0.269200  1.0  0.12
  H  H232  1  0.137000  0.257200  0.184000  1.0  0.1588
  C  C233  1  0.755900  0.077390  0.343600  1.0  -0.0469
  C  C234  1  0.756700  0.070500  0.451300  1.0  0.1218
  C  C235  1  0.711400  0.953300  0.228800  1.0  0.0064
  C  C236  1  0.779200  0.948800  0.218200  1.0  -0.0896
  C  C237  1  0.788800  0.048400  0.477100  1.0  -0.0401
  C  C238  1  0.723100  0.053400  0.488800  1.0  -0.0393
  C  C239  1  0.745600  0.931900  0.256300  1.0  0.1166
  C  C240  1  0.746300  0.924300  0.361800  1.0  -0.0511
  C  C241  1  0.758900  0.106800  0.497400  1.0  0.1386
  C  C242  1  0.735900  0.862800  0.060400  1.0  0.1614
  C  C243  1  0.740800  0.896300  0.206300  1.0  0.0723
  C  C244  1  0.737600  0.893700  0.106400  1.0  -0.1355
  C  C245  1  0.735700  0.165100  0.523200  1.0  0.1705
  C  C246  1  0.784500  0.115100  0.563800  1.0  -0.2083
  C  C247  1  0.735600  0.132900  0.474700  1.0  -0.1503
  C  C248  1  0.784900  0.148200  0.605600  1.0  0.1814
  C  C249  1  0.739500  0.832800  0.197100  1.0  0.2174
  C  C250  1  0.741300  0.864200  0.249500  1.0  -0.1756
  C  C251  1  0.244100  0.922610  0.843600  1.0  -0.0441
  C  C252  1  0.243300  0.929500  0.951300  1.0  0.1217
  C  C253  1  0.288600  0.046700  0.728800  1.0  0.0055
  C  C254  1  0.220800  0.051200  0.718200  1.0  -0.0925
  C  C255  1  0.211200  0.951600  0.977100  1.0  -0.0377
  C  C256  1  0.276900  0.946600  0.988800  1.0  -0.0389
  C  C257  1  0.254400  0.068100  0.756300  1.0  0.1162
  C  C258  1  0.253700  0.075700  0.861800  1.0  -0.0514
  C  C259  1  0.241100  0.893200  0.997400  1.0  0.1405
  C  C260  1  0.264100  0.137200  0.560400  1.0  0.1599
  C  C261  1  0.259200  0.103700  0.706300  1.0  0.0727
  C  C262  1  0.262400  0.106300  0.606400  1.0  -0.1347
  C  C263  1  0.264300  0.834900  0.023200  1.0  0.1703
  C  C264  1  0.215500  0.884900  0.063800  1.0  -0.2084
  C  C265  1  0.264400  0.867100  0.974700  1.0  -0.1499
  C  C266  1  0.215100  0.851800  0.105600  1.0  0.1823
  C  C267  1  0.260500  0.167200  0.697100  1.0  0.218
  C  C268  1  0.258700  0.135800  0.749500  1.0  -0.1746
  C  C269  1  0.422610  0.255900  0.093600  1.0  -0.0426
  C  C270  1  0.429500  0.256700  0.201300  1.0  0.1213
  C  C271  1  0.546700  0.211400  0.978800  1.0  0.007
  C  C272  1  0.551200  0.279200  0.968200  1.0  -0.091
  C  C273  1  0.451600  0.288800  0.227100  1.0  -0.0368
  C  C274  1  0.446600  0.223100  0.238800  1.0  -0.0394
  C  C275  1  0.568100  0.245600  0.006300  1.0  0.116
  C  C276  1  0.575700  0.246300  0.111800  1.0  -0.0497
  C  C277  1  0.393200  0.258900  0.247400  1.0  0.1358
  C  C278  1  0.637200  0.235900  0.810400  1.0  0.1618
  C  C279  1  0.603700  0.240800  0.956300  1.0  0.0704
  C  C280  1  0.606300  0.237600  0.856400  1.0  -0.1361
  C  C281  1  0.334900  0.235700  0.273200  1.0  0.1723
  C  C282  1  0.384900  0.284500  0.313800  1.0  -0.2115
  C  C283  1  0.367100  0.235600  0.224700  1.0  -0.1501
  C  C284  1  0.351800  0.284900  0.355600  1.0  0.1781
  C  C285  1  0.667200  0.239500  0.947100  1.0  0.2197
  C  C286  1  0.635800  0.241300  0.999500  1.0  -0.1718
  C  C287  1  0.577390  0.744100  0.593600  1.0  -0.0398
  C  C288  1  0.570500  0.743300  0.701300  1.0  0.1214
  C  C289  1  0.453300  0.788600  0.478800  1.0  0.006
  C  C290  1  0.448800  0.720800  0.468200  1.0  -0.0913
  C  C291  1  0.548400  0.711200  0.727100  1.0  -0.0355
  C  C292  1  0.553400  0.776900  0.738800  1.0  -0.0402
  C  C293  1  0.431900  0.754400  0.506300  1.0  0.1155
  C  C294  1  0.424300  0.753700  0.611800  1.0  -0.0488
  C  C295  1  0.606800  0.741100  0.747400  1.0  0.1377
  C  C296  1  0.362800  0.764100  0.310400  1.0  0.1625
  C  C297  1  0.396300  0.759200  0.456300  1.0  0.0697
  C  C298  1  0.393700  0.762400  0.356400  1.0  -0.1366
  C  C299  1  0.665100  0.764300  0.773200  1.0  0.1732
  C  C300  1  0.615100  0.715500  0.813800  1.0  -0.213
  C  C301  1  0.632900  0.764400  0.724700  1.0  -0.149
  C  C302  1  0.648200  0.715100  0.855600  1.0  0.1802
  C  C303  1  0.332800  0.760500  0.447100  1.0  0.2212
  C  C304  1  0.364200  0.758700  0.499500  1.0  -0.1752
  C  C305  1  0.744100  0.577390  0.406400  1.0  -0.0508
  C  C306  1  0.743300  0.570500  0.298700  1.0  0.1215
  C  C307  1  0.788600  0.453300  0.521200  1.0  0.0057
  C  C308  1  0.720800  0.448800  0.531800  1.0  -0.0948
  C  C309  1  0.711200  0.548400  0.272900  1.0  -0.0376
  C  C310  1  0.776900  0.553400  0.261200  1.0  -0.0379
  C  C311  1  0.754400  0.431900  0.493700  1.0  0.1164
  C  C312  1  0.753700  0.424300  0.388200  1.0  -0.051
  C  C313  1  0.741100  0.606800  0.252600  1.0  0.1379
  C  C314  1  0.764100  0.362800  0.689600  1.0  0.1616
  C  C315  1  0.759200  0.396300  0.543700  1.0  0.0726
  C  C316  1  0.762400  0.393700  0.643600  1.0  -0.1332
  C  C317  1  0.764300  0.665100  0.226800  1.0  0.1699
  C  C318  1  0.715500  0.615100  0.186200  1.0  -0.2094
  C  C319  1  0.764400  0.632900  0.275300  1.0  -0.1513
  C  C320  1  0.715100  0.648200  0.144400  1.0  0.1821
  C  C321  1  0.760500  0.332800  0.552900  1.0  0.2162
  C  C322  1  0.758700  0.364200  0.500500  1.0  -0.1756
  C  C323  1  0.255900  0.422610  0.906400  1.0  -0.0484
  C  C324  1  0.256700  0.429500  0.798700  1.0  0.1218
  C  C325  1  0.211400  0.546700  0.021200  1.0  0.006
  C  C326  1  0.279200  0.551200  0.031800  1.0  -0.0938
  C  C327  1  0.288800  0.451600  0.772900  1.0  -0.0373
  C  C328  1  0.223100  0.446600  0.761200  1.0  -0.0389
  C  C329  1  0.245600  0.568100  0.993700  1.0  0.1163
  C  C330  1  0.246300  0.575700  0.888200  1.0  -0.051
  C  C331  1  0.258900  0.393200  0.752600  1.0  0.1397
  C  C332  1  0.235900  0.637200  0.189600  1.0  0.1608
  C  C333  1  0.240800  0.603700  0.043700  1.0  0.0722
  C  C334  1  0.237600  0.606300  0.143600  1.0  -0.1339
  C  C335  1  0.235700  0.334900  0.726800  1.0  0.1707
  C  C336  1  0.284500  0.384900  0.686200  1.0  -0.2089
  C  C337  1  0.235600  0.367100  0.775300  1.0  -0.1481
  C  C338  1  0.284900  0.351800  0.644400  1.0  0.1809
  C  C339  1  0.239500  0.667200  0.052900  1.0  0.217
  C  C340  1  0.241300  0.635800  0.000500  1.0  -0.1755
  C  C341  1  0.077390  0.755900  0.656400  1.0  -0.0431
  C  C342  1  0.070500  0.756700  0.548700  1.0  0.1215
  C  C343  1  0.953300  0.711400  0.771200  1.0  0.0068
  C  C344  1  0.948800  0.779200  0.781800  1.0  -0.0972
  C  C345  1  0.048400  0.788800  0.522900  1.0  -0.0348
  C  C346  1  0.053400  0.723100  0.511200  1.0  -0.0385
  C  C347  1  0.931900  0.745600  0.743700  1.0  0.1157
  C  C348  1  0.924300  0.746300  0.638200  1.0  -0.0492
  C  C349  1  0.106800  0.758900  0.502600  1.0  0.1375
  C  C350  1  0.862800  0.735900  0.939600  1.0  0.1622
  C  C351  1  0.896300  0.740800  0.793700  1.0  0.07
  C  C352  1  0.893700  0.737600  0.893600  1.0  -0.1345
  C  C353  1  0.165100  0.735700  0.476800  1.0  0.173
  C  C354  1  0.115100  0.784500  0.436200  1.0  -0.2144
  C  C355  1  0.132900  0.735600  0.525300  1.0  -0.148
  C  C356  1  0.148200  0.784900  0.394400  1.0  0.1791
  C  C357  1  0.832800  0.739500  0.802900  1.0  0.2201
  C  C358  1  0.864200  0.741300  0.750500  1.0  -0.1741
  C  C359  1  0.922610  0.244100  0.156400  1.0  -0.0451
  C  C360  1  0.929500  0.243300  0.048700  1.0  0.1208
  C  C361  1  0.046700  0.288600  0.271200  1.0  0.0037
  C  C362  1  0.051200  0.220800  0.281800  1.0  -0.0923
  C  C363  1  0.951600  0.211200  0.022900  1.0  -0.0353
  C  C364  1  0.946600  0.276900  0.011200  1.0  -0.0372
  C  C365  1  0.068100  0.254400  0.243700  1.0  0.1157
  C  C366  1  0.075700  0.253700  0.138200  1.0  -0.0482
  C  C367  1  0.893200  0.241100  0.002600  1.0  0.1344
  C  C368  1  0.137200  0.264100  0.439600  1.0  0.1623
  C  C369  1  0.103700  0.259200  0.293700  1.0  0.0696
  C  C370  1  0.106300  0.262400  0.393600  1.0  -0.1346
  C  C371  1  0.834900  0.264300  0.976800  1.0  0.1712
  C  C372  1  0.884900  0.215500  0.936200  1.0  -0.213
  C  C373  1  0.867100  0.264400  0.025300  1.0  -0.1487
  C  C374  1  0.851800  0.215100  0.894400  1.0  0.1794
  C  C375  1  0.167200  0.260500  0.302900  1.0  0.2194
  C  C376  1  0.135800  0.258700  0.250500  1.0  -0.1723
  I  I377  1  0.680930  0.750160  0.092540  1.0  -0.1959
  I  I378  1  0.798550  0.753380  0.134810  1.0  -0.205
  I  I379  1  0.319070  0.249840  0.592540  1.0  -0.1958
  I  I380  1  0.201450  0.246620  0.634810  1.0  -0.205
  I  I381  1  0.749840  0.180930  0.842540  1.0  -0.1979
  I  I382  1  0.746620  0.298550  0.884810  1.0  -0.2055
  I  I383  1  0.250160  0.819070  0.342540  1.0  -0.196
  I  I384  1  0.253380  0.701450  0.384810  1.0  -0.2048
  I  I385  1  0.819070  0.250160  0.657460  1.0  -0.1954
  I  I386  1  0.701450  0.253380  0.615190  1.0  -0.206
  I  I387  1  0.180930  0.749840  0.157460  1.0  -0.1958
  I  I388  1  0.298550  0.746620  0.115190  1.0  -0.2066
  I  I389  1  0.750160  0.680930  0.907460  1.0  -0.1966
  I  I390  1  0.753380  0.798550  0.865190  1.0  -0.2068
  I  I391  1  0.249840  0.319070  0.407460  1.0  -0.1972
  I  I392  1  0.246620  0.201450  0.365190  1.0  -0.206
  N  N393  1  0.737100  0.830900  0.108600  1.0  -0.2447
  N  N394  1  0.759600  0.172400  0.590200  1.0  -0.267
  N  N395  1  0.262900  0.169100  0.608600  1.0  -0.2444
  N  N396  1  0.240400  0.827600  0.090200  1.0  -0.2662
  N  N397  1  0.669100  0.237100  0.858600  1.0  -0.2477
  N  N398  1  0.327600  0.259600  0.340200  1.0  -0.2733
  N  N399  1  0.330900  0.762900  0.358600  1.0  -0.246
  N  N400  1  0.672400  0.740400  0.840200  1.0  -0.2727
  N  N401  1  0.762900  0.330900  0.641400  1.0  -0.2438
  N  N402  1  0.740400  0.672400  0.159800  1.0  -0.2672
  N  N403  1  0.237100  0.669100  0.141400  1.0  -0.2439
  N  N404  1  0.259600  0.327600  0.659800  1.0  -0.2671
  N  N405  1  0.830900  0.737100  0.891400  1.0  -0.2467
  N  N406  1  0.172400  0.759600  0.409800  1.0  -0.2737
  N  N407  1  0.169100  0.262900  0.391400  1.0  -0.2473
  N  N408  1  0.827600  0.240400  0.909800  1.0  -0.2725
  O  O409  1  0.710860  0.988060  0.272900  1.0  -0.6661
  O  O410  1  0.749870  0.956400  0.419200  1.0  -0.659
  O  O411  1  0.751370  0.046290  0.287400  1.0  -0.6915
  O  O412  1  0.715310  0.018390  0.450800  1.0  -0.6541
  O  O413  1  0.792100  0.014260  0.433100  1.0  -0.661
  O  O414  1  0.677160  0.046430  0.298700  1.0  -0.6143
  O  O415  1  0.744740  0.019410  0.125700  1.0  -0.6179
  O  O416  1  0.677190  0.964730  0.437500  1.0  -0.6212
  O  O417  1  0.823780  0.956850  0.408000  1.0  -0.6246
  O  O418  1  0.755700  0.981730  0.579700  1.0  -0.6261
  O  O419  1  0.787320  0.983680  0.255500  1.0  -0.6708
  O  O420  1  0.824990  0.037230  0.267400  1.0  -0.6201
  O  O421  1  0.289140  0.011940  0.772900  1.0  -0.666
  O  O422  1  0.250130  0.043600  0.919200  1.0  -0.6591
  O  O423  1  0.248630  0.953710  0.787400  1.0  -0.6922
  O  O424  1  0.284690  0.981610  0.950800  1.0  -0.6525
  O  O425  1  0.207900  0.985740  0.933100  1.0  -0.6621
  O  O426  1  0.322840  0.953570  0.798700  1.0  -0.619
  O  O427  1  0.255260  0.980590  0.625700  1.0  -0.6116
  O  O428  1  0.322810  0.035270  0.937500  1.0  -0.6243
  O  O429  1  0.176220  0.043150  0.908000  1.0  -0.6165
  O  O430  1  0.244300  0.018270  0.079700  1.0  -0.6228
  O  O431  1  0.212680  0.016320  0.755500  1.0  -0.6715
  O  O432  1  0.175010  0.962770  0.767400  1.0  -0.6152
  O  O433  1  0.511940  0.210860  0.022900  1.0  -0.657
  O  O434  1  0.543600  0.249870  0.169200  1.0  -0.6545
  O  O435  1  0.453710  0.251370  0.037400  1.0  -0.6904
  O  O436  1  0.481610  0.215310  0.200800  1.0  -0.6519
  O  O437  1  0.485740  0.292100  0.183100  1.0  -0.6635
  O  O438  1  0.453570  0.177160  0.048700  1.0  -0.6191
  O  O439  1  0.480590  0.244740  0.875700  1.0  -0.616
  O  O440  1  0.535270  0.177190  0.187500  1.0  -0.6299
  O  O441  1  0.543150  0.323780  0.158000  1.0  -0.6171
  O  O442  1  0.518270  0.255700  0.329700  1.0  -0.627
  O  O443  1  0.516320  0.287320  0.005500  1.0  -0.6632
  O  O444  1  0.462770  0.324990  0.017400  1.0  -0.6108
  O  O445  1  0.488060  0.789140  0.522900  1.0  -0.6649
  O  O446  1  0.456400  0.750130  0.669200  1.0  -0.6558
  O  O447  1  0.546290  0.748630  0.537400  1.0  -0.6907
  O  O448  1  0.518390  0.784690  0.700800  1.0  -0.6528
  O  O449  1  0.514260  0.707900  0.683100  1.0  -0.6627
  O  O450  1  0.546430  0.822840  0.548700  1.0  -0.6119
  O  O451  1  0.519410  0.755260  0.375700  1.0  -0.6155
  O  O452  1  0.464730  0.822810  0.687500  1.0  -0.6147
  O  O453  1  0.456850  0.676220  0.658000  1.0  -0.6252
  O  O454  1  0.481730  0.744300  0.829700  1.0  -0.625
  O  O455  1  0.483680  0.712680  0.505500  1.0  -0.6619
  O  O456  1  0.537230  0.675010  0.517400  1.0  -0.6263
  O  O457  1  0.789140  0.488060  0.477100  1.0  -0.6643
  O  O458  1  0.750130  0.456400  0.330800  1.0  -0.6587
  O  O459  1  0.748630  0.546290  0.462600  1.0  -0.69
  O  O460  1  0.784690  0.518390  0.299200  1.0  -0.6539
  O  O461  1  0.707900  0.514260  0.316900  1.0  -0.6652
  O  O462  1  0.822840  0.546430  0.451300  1.0  -0.6187
  O  O463  1  0.755260  0.519410  0.624300  1.0  -0.6106
  O  O464  1  0.822810  0.464730  0.312500  1.0  -0.6254
  O  O465  1  0.676220  0.456850  0.342000  1.0  -0.6186
  O  O466  1  0.744300  0.481730  0.170300  1.0  -0.6272
  O  O467  1  0.712680  0.483680  0.494500  1.0  -0.6691
  O  O468  1  0.675010  0.537230  0.482600  1.0  -0.6214
  O  O469  1  0.210860  0.511940  0.977100  1.0  -0.6624
  O  O470  1  0.249870  0.543600  0.830800  1.0  -0.6584
  O  O471  1  0.251370  0.453710  0.962600  1.0  -0.6903
  O  O472  1  0.215310  0.481610  0.799200  1.0  -0.653
  O  O473  1  0.292100  0.485740  0.816900  1.0  -0.6609
  O  O474  1  0.177160  0.453570  0.951300  1.0  -0.6155
  O  O475  1  0.244740  0.480590  0.124300  1.0  -0.6142
  O  O476  1  0.177190  0.535270  0.812500  1.0  -0.6198
  O  O477  1  0.323780  0.543150  0.842000  1.0  -0.6204
  O  O478  1  0.255700  0.518270  0.670300  1.0  -0.6312
  O  O479  1  0.287320  0.516320  0.994500  1.0  -0.6699
  O  O480  1  0.324990  0.462770  0.982600  1.0  -0.6225
  O  O481  1  0.988060  0.710860  0.727100  1.0  -0.657
  O  O482  1  0.956400  0.749870  0.580800  1.0  -0.6555
  O  O483  1  0.046290  0.751370  0.712600  1.0  -0.6885
  O  O484  1  0.018390  0.715310  0.549200  1.0  -0.6514
  O  O485  1  0.014260  0.792100  0.566900  1.0  -0.6643
  O  O486  1  0.046430  0.677160  0.701300  1.0  -0.6191
  O  O487  1  0.019410  0.744740  0.874300  1.0  -0.613
  O  O488  1  0.964730  0.677190  0.562500  1.0  -0.6255
  O  O489  1  0.956850  0.823780  0.592000  1.0  -0.6143
  O  O490  1  0.981730  0.755700  0.420300  1.0  -0.6313
  O  O491  1  0.983680  0.787320  0.744500  1.0  -0.6618
  O  O492  1  0.037230  0.824990  0.732600  1.0  -0.6102
  O  O493  1  0.011940  0.289140  0.227100  1.0  -0.6616
  O  O494  1  0.043600  0.250130  0.080800  1.0  -0.6555
  O  O495  1  0.953710  0.248630  0.212600  1.0  -0.6874
  O  O496  1  0.981610  0.284690  0.049200  1.0  -0.6529
  O  O497  1  0.985740  0.207900  0.066900  1.0  -0.6631
  O  O498  1  0.953570  0.322840  0.201300  1.0  -0.6096
  O  O499  1  0.980590  0.255260  0.374300  1.0  -0.6124
  O  O500  1  0.035270  0.322810  0.062500  1.0  -0.6189
  O  O501  1  0.043150  0.176220  0.092000  1.0  -0.6227
  O  O502  1  0.018270  0.244300  0.920300  1.0  -0.6326
  O  O503  1  0.016320  0.212680  0.244500  1.0  -0.6627
  O  O504  1  0.962770  0.175010  0.232600  1.0  -0.6249
