# generated using pymatgen
data_Be3P4(HO4)4
_symmetry_space_group_name_H-M   'P 1'
_cell_length_a   8.64200000
_cell_length_b   8.71900000
_cell_length_c   12.04900000
_cell_angle_alpha   85.14400000
_cell_angle_beta   80.75700000
_cell_angle_gamma   80.71000000
_symmetry_Int_Tables_number   1
_chemical_formula_structural   Be3P4(HO4)4
_chemical_formula_sum   'Be6 P8 H8 O32'
_cell_volume   882.73750337
_cell_formula_units_Z   2
loop_
 _symmetry_equiv_pos_site_id
 _symmetry_equiv_pos_as_xyz
  1  'x, y, z'
loop_
 _atom_site_type_symbol
 _atom_site_label
 _atom_site_symmetry_multiplicity
 _atom_site_fract_x
 _atom_site_fract_y
 _atom_site_fract_z
 _atom_site_occupancy
 _atom_site_charge
  Be  Be1  1  0.978200  0.919800  0.841400  1.0  1.1352
  Be  Be2  1  0.810900  0.173900  0.472600  1.0  1.1464
  Be  Be3  1  0.222500  0.297900  0.754700  1.0  1.1726
  Be  Be4  1  0.021800  0.080200  0.158600  1.0  1.1355
  Be  Be5  1  0.189100  0.826100  0.527400  1.0  1.1493
  Be  Be6  1  0.777500  0.702100  0.245300  1.0  1.1723
  P  P7  1  0.163360  0.644430  0.741400  1.0  1.7526
  P  P8  1  0.224710  0.051800  0.937300  1.0  1.6658
  P  P9  1  0.043070  0.108710  0.637360  1.0  1.923
  P  P10  1  0.534950  0.154290  0.656810  1.0  1.8596
  P  P11  1  0.836640  0.355570  0.258600  1.0  1.7535
  P  P12  1  0.775290  0.948200  0.062700  1.0  1.6652
  P  P13  1  0.956930  0.891290  0.362640  1.0  1.9219
  P  P14  1  0.465050  0.845710  0.343190  1.0  1.8574
  H  H15  1  0.318400  0.777700  0.769900  1.0  0.3928
  H  H16  1  0.404600  0.879100  0.957600  1.0  0.411
  H  H17  1  0.411400  0.981000  0.700200  1.0  0.3915
  H  H18  1  0.568300  0.086500  0.813500  1.0  0.4116
  H  H19  1  0.681600  0.222300  0.230100  1.0  0.3905
  H  H20  1  0.595400  0.120900  0.042400  1.0  0.4102
  H  H21  1  0.588600  0.019000  0.299800  1.0  0.3938
  H  H22  1  0.431700  0.913500  0.186500  1.0  0.41
  O  O23  1  0.014900  0.742100  0.799000  1.0  -0.7597
  O  O24  1  0.153500  0.477000  0.775300  1.0  -0.7863
  O  O25  1  0.188300  0.670400  0.614700  1.0  -0.8344
  O  O26  1  0.310000  0.686100  0.787400  1.0  -0.7097
  O  O27  1  0.223100  0.209100  0.876500  1.0  -0.7385
  O  O28  1  0.402000  0.965500  0.924600  1.0  -0.6927
  O  O29  1  0.139900  0.945800  0.883900  1.0  -0.7058
  O  O30  1  0.171300  0.063200  0.061900  1.0  -0.7676
  O  O31  1  0.111800  0.239400  0.677300  1.0  -0.7883
  O  O32  1  0.931400  0.038900  0.734400  1.0  -0.889
  O  O33  1  0.180100  0.981700  0.594600  1.0  -0.866
  O  O34  1  0.950800  0.177900  0.543300  1.0  -0.7817
  O  O35  1  0.403300  0.286400  0.685600  1.0  -0.8172
  O  O36  1  0.469200  0.003800  0.642300  1.0  -0.6632
  O  O37  1  0.628500  0.111900  0.757600  1.0  -0.6704
  O  O38  1  0.641000  0.200900  0.553700  1.0  -0.7891
  O  O39  1  0.985100  0.257900  0.201000  1.0  -0.7599
  O  O40  1  0.846500  0.523000  0.224700  1.0  -0.787
  O  O41  1  0.811700  0.329600  0.385300  1.0  -0.8339
  O  O42  1  0.690000  0.313900  0.212600  1.0  -0.7066
  O  O43  1  0.776900  0.790900  0.123500  1.0  -0.7389
  O  O44  1  0.598000  0.034500  0.075400  1.0  -0.694
  O  O45  1  0.860100  0.054200  0.116100  1.0  -0.7046
  O  O46  1  0.828700  0.936800  0.938100  1.0  -0.7692
  O  O47  1  0.888200  0.760600  0.322700  1.0  -0.7876
  O  O48  1  0.068600  0.961100  0.265600  1.0  -0.8914
  O  O49  1  0.819900  0.018300  0.405400  1.0  -0.8669
  O  O50  1  0.049200  0.822100  0.456700  1.0  -0.7825
  O  O51  1  0.596700  0.713600  0.314400  1.0  -0.8138
  O  O52  1  0.530800  0.996200  0.357700  1.0  -0.6641
  O  O53  1  0.371500  0.888100  0.242400  1.0  -0.67
  O  O54  1  0.359000  0.799100  0.446300  1.0  -0.7918
