# generated using pymatgen
data_Cd3H10(C10O7)2
_symmetry_space_group_name_H-M   'P 1'
_cell_length_a   6.76500000
_cell_length_b   11.48200000
_cell_length_c   17.85800000
_cell_angle_alpha   90.00000000
_cell_angle_beta   104.06000000
_cell_angle_gamma   90.00000000
_symmetry_Int_Tables_number   1
_chemical_formula_structural   Cd3H10(C10O7)2
_chemical_formula_sum   'Cd6 H20 C40 O28'
_cell_volume   1345.57724821
_cell_formula_units_Z   2
loop_
 _symmetry_equiv_pos_site_id
 _symmetry_equiv_pos_as_xyz
  1  'x, y, z'
loop_
 _atom_site_type_symbol
 _atom_site_label
 _atom_site_symmetry_multiplicity
 _atom_site_fract_x
 _atom_site_fract_y
 _atom_site_fract_z
 _atom_site_occupancy
 _atom_site_charge
  Cd  Cd1  1  0.795950  0.855580  0.972150  1.0  1.0277
  Cd  Cd2  1  0.204050  0.855580  0.527850  1.0  1.0301
  Cd  Cd3  1  0.204050  0.144420  0.027850  1.0  1.0306
  Cd  Cd4  1  0.795950  0.144420  0.472150  1.0  1.0282
  Cd  Cd5  1  0.500000  0.351210  0.250000  1.0  1.0097
  Cd  Cd6  1  0.500000  0.648790  0.750000  1.0  1.0053
  H  H7  1  0.198500  0.707700  0.094100  1.0  0.1395
  H  H8  1  0.290000  0.598700  0.315000  1.0  0.1423
  H  H9  1  0.240700  0.941100  0.266700  1.0  0.1233
  H  H10  1  0.132000  0.530800  0.069600  1.0  0.1086
  H  H11  1  0.978800  0.496600  0.119400  1.0  0.1272
  H  H12  1  0.801500  0.707700  0.405900  1.0  0.1396
  H  H13  1  0.710000  0.598700  0.185000  1.0  0.1423
  H  H14  1  0.759300  0.941100  0.233300  1.0  0.1233
  H  H15  1  0.868000  0.530800  0.430400  1.0  0.1084
  H  H16  1  0.021200  0.496600  0.380600  1.0  0.1224
  H  H17  1  0.801500  0.292300  0.905900  1.0  0.1397
  H  H18  1  0.710000  0.401300  0.685000  1.0  0.1431
  H  H19  1  0.759300  0.058900  0.733300  1.0  0.123
  H  H20  1  0.868000  0.469200  0.930400  1.0  0.1081
  H  H21  1  0.021200  0.503400  0.880600  1.0  0.1227
  H  H22  1  0.198500  0.292300  0.594100  1.0  0.1396
  H  H23  1  0.290000  0.401300  0.815000  1.0  0.1424
  H  H24  1  0.240700  0.058900  0.766700  1.0  0.1235
  H  H25  1  0.132000  0.469200  0.569600  1.0  0.1084
  H  H26  1  0.978800  0.503400  0.619400  1.0  0.1268
  C  C27  1  0.193500  0.936400  0.112000  1.0  0.7071
  C  C28  1  0.219100  0.840400  0.171600  1.0  -0.122
  C  C29  1  0.217600  0.724700  0.146300  1.0  -0.1468
  C  C30  1  0.245400  0.635200  0.201200  1.0  0.2529
  C  C31  1  0.270500  0.658900  0.279100  1.0  -0.0913
  C  C32  1  0.266200  0.775100  0.302900  1.0  -0.1365
  C  C33  1  0.242000  0.864400  0.250100  1.0  0.0159
  C  C34  1  0.283400  0.798000  0.387800  1.0  0.6695
  C  C35  1  0.115300  0.483900  0.112800  1.0  -0.0334
  C  C36  1  0.142200  0.357200  0.095900  1.0  0.7518
  C  C37  1  0.806500  0.936400  0.388000  1.0  0.7059
  C  C38  1  0.780900  0.840400  0.328400  1.0  -0.1216
  C  C39  1  0.782400  0.724700  0.353700  1.0  -0.1439
  C  C40  1  0.754600  0.635200  0.298800  1.0  0.2515
  C  C41  1  0.729500  0.658900  0.220900  1.0  -0.0934
  C  C42  1  0.733800  0.775100  0.197100  1.0  -0.1368
  C  C43  1  0.758000  0.864400  0.249900  1.0  0.0149
  C  C44  1  0.716600  0.798000  0.112200  1.0  0.6691
  C  C45  1  0.884700  0.483900  0.387200  1.0  -0.0327
  C  C46  1  0.857800  0.357200  0.404100  1.0  0.7519
  C  C47  1  0.806500  0.063600  0.888000  1.0  0.7072
  C  C48  1  0.780900  0.159600  0.828400  1.0  -0.1207
  C  C49  1  0.782400  0.275300  0.853700  1.0  -0.1435
  C  C50  1  0.754600  0.364800  0.798800  1.0  0.2522
  C  C51  1  0.729500  0.341100  0.720900  1.0  -0.0946
  C  C52  1  0.733800  0.224900  0.697100  1.0  -0.1373
  C  C53  1  0.758000  0.135600  0.749900  1.0  0.0141
  C  C54  1  0.716600  0.202000  0.612200  1.0  0.6693
  C  C55  1  0.884700  0.516100  0.887200  1.0  -0.0327
  C  C56  1  0.857800  0.642800  0.904100  1.0  0.7538
  C  C57  1  0.193500  0.063600  0.612000  1.0  0.7055
  C  C58  1  0.219100  0.159600  0.671600  1.0  -0.1226
  C  C59  1  0.217600  0.275300  0.646300  1.0  -0.147
  C  C60  1  0.245400  0.364800  0.701200  1.0  0.2532
  C  C61  1  0.270500  0.341100  0.779100  1.0  -0.0923
  C  C62  1  0.266200  0.224900  0.802900  1.0  -0.1366
  C  C63  1  0.242000  0.135600  0.750100  1.0  0.0144
  C  C64  1  0.283400  0.202000  0.887800  1.0  0.6702
  C  C65  1  0.115300  0.516100  0.612800  1.0  -0.0328
  C  C66  1  0.142200  0.642800  0.595900  1.0  0.7542
  O  O67  1  0.212500  0.041600  0.137400  1.0  -0.5921
  O  O68  1  0.162200  0.912500  0.041300  1.0  -0.6644
  O  O69  1  0.252100  0.902800  0.407300  1.0  -0.5969
  O  O70  1  0.316400  0.717300  0.435300  1.0  -0.6172
  O  O71  1  0.260700  0.518700  0.180900  1.0  -0.3314
  O  O72  1  0.017700  0.311800  0.039100  1.0  -0.6011
  O  O73  1  0.292100  0.302700  0.133600  1.0  -0.6354
  O  O74  1  0.787500  0.041600  0.362600  1.0  -0.5883
  O  O75  1  0.837800  0.912500  0.458700  1.0  -0.6657
  O  O76  1  0.747900  0.902800  0.092700  1.0  -0.5962
  O  O77  1  0.683600  0.717300  0.064700  1.0  -0.6181
  O  O78  1  0.739300  0.518700  0.319100  1.0  -0.3337
  O  O79  1  0.982300  0.311800  0.460900  1.0  -0.6025
  O  O80  1  0.707900  0.302700  0.366400  1.0  -0.6378
  O  O81  1  0.787500  0.958400  0.862600  1.0  -0.5886
  O  O82  1  0.837800  0.087500  0.958700  1.0  -0.6645
  O  O83  1  0.747900  0.097200  0.592700  1.0  -0.5943
  O  O84  1  0.683600  0.282700  0.564700  1.0  -0.6186
  O  O85  1  0.739300  0.481300  0.819100  1.0  -0.3326
  O  O86  1  0.982300  0.688200  0.960900  1.0  -0.602
  O  O87  1  0.707900  0.697300  0.866400  1.0  -0.6364
  O  O88  1  0.212500  0.958400  0.637400  1.0  -0.5879
  O  O89  1  0.162200  0.087500  0.541300  1.0  -0.6639
  O  O90  1  0.252100  0.097200  0.907300  1.0  -0.5958
  O  O91  1  0.316400  0.282700  0.935300  1.0  -0.6183
  O  O92  1  0.260700  0.481300  0.680900  1.0  -0.3318
  O  O93  1  0.017700  0.688200  0.539100  1.0  -0.6008
  O  O94  1  0.292100  0.697300  0.633600  1.0  -0.6351
