# generated using pymatgen
data_TbH9C18(NO2)3
_symmetry_space_group_name_H-M   'P 1'
_cell_length_a   9.61280000
_cell_length_b   11.33600000
_cell_length_c   11.90600000
_cell_angle_alpha   114.52000000
_cell_angle_beta   91.19000000
_cell_angle_gamma   106.00000000
_symmetry_Int_Tables_number   1
_chemical_formula_structural   TbH9C18(NO2)3
_chemical_formula_sum   'Tb2 H18 C36 N6 O12'
_cell_volume   1121.04165624
_cell_formula_units_Z   2
loop_
 _symmetry_equiv_pos_site_id
 _symmetry_equiv_pos_as_xyz
  1  'x, y, z'
loop_
 _atom_site_type_symbol
 _atom_site_label
 _atom_site_symmetry_multiplicity
 _atom_site_fract_x
 _atom_site_fract_y
 _atom_site_fract_z
 _atom_site_occupancy
 _atom_site_charge
  Tb  Tb1  1  0.693300  0.955200  0.971000  1.0  2.2965
  Tb  Tb2  1  0.306700  0.044800  0.029000  1.0  2.2972
  H  H3  1  0.860700  0.317400  0.022600  1.0  0.1255
  H  H4  1  0.181000  0.868000  0.607200  1.0  0.115
  H  H5  1  0.525600  0.408600  0.912100  1.0  0.1175
  H  H6  1  0.193900  0.874700  0.238700  1.0  0.1099
  H  H7  1  0.585400  0.834800  0.576400  1.0  0.1308
  H  H8  1  0.767500  0.832800  0.230300  1.0  0.1249
  H  H9  1  0.539600  0.789900  0.370800  1.0  0.0786
  H  H10  1  0.772300  0.773500  0.392200  1.0  0.0796
  H  H11  1  0.690100  0.575800  0.880800  1.0  0.0863
  H  H12  1  0.139300  0.682600  0.977400  1.0  0.1256
  H  H13  1  0.819000  0.132000  0.392800  1.0  0.1152
  H  H14  1  0.474400  0.591400  0.087900  1.0  0.1166
  H  H15  1  0.806100  0.125300  0.761300  1.0  0.1107
  H  H16  1  0.414600  0.165200  0.423600  1.0  0.1309
  H  H17  1  0.232500  0.167200  0.769700  1.0  0.1255
  H  H18  1  0.460400  0.210100  0.629200  1.0  0.0782
  H  H19  1  0.227700  0.226500  0.607800  1.0  0.0817
  H  H20  1  0.309900  0.424200  0.119200  1.0  0.0862
  C  C21  1  0.983200  0.897600  0.107600  1.0  0.7432
  C  C22  1  0.571500  0.234100  0.993300  1.0  0.7198
  C  C23  1  0.823600  0.371400  0.997000  1.0  -0.0407
  C  C24  1  0.674200  0.344000  0.972100  1.0  -0.1368
  C  C25  1  0.256900  0.854400  0.561100  1.0  -0.0354
  C  C26  1  0.625500  0.423700  0.929400  1.0  -0.1751
  C  C27  1  0.107500  0.858500  0.271500  1.0  -0.0569
  C  C28  1  0.918300  0.480900  0.983300  1.0  0.1867
  C  C29  1  0.982400  0.861500  0.216900  1.0  -0.1584
  C  C30  1  0.414700  0.894400  0.753600  1.0  0.7457
  C  C31  1  0.388300  0.858800  0.616600  1.0  -0.1344
  C  C32  1  0.240000  0.829900  0.437100  1.0  0.1734
  C  C33  1  0.496500  0.834300  0.543600  1.0  -0.1165
  C  C34  1  0.854700  0.831200  0.264200  1.0  -0.14
  C  C35  1  0.106800  0.831800  0.375200  1.0  0.1894
  C  C36  1  0.467900  0.809200  0.420400  1.0  0.1946
  C  C37  1  0.859800  0.798400  0.363500  1.0  0.1712
  C  C38  1  0.725200  0.525300  0.912500  1.0  0.1689
  C  C39  1  0.016800  0.102400  0.892400  1.0  0.7396
  C  C40  1  0.428500  0.765900  0.006700  1.0  0.7205
  C  C41  1  0.176400  0.628600  0.003000  1.0  -0.0402
  C  C42  1  0.325800  0.656000  0.027900  1.0  -0.1364
  C  C43  1  0.743100  0.145600  0.438900  1.0  -0.0391
  C  C44  1  0.374500  0.576300  0.070600  1.0  -0.1761
  C  C45  1  0.892500  0.141500  0.728500  1.0  -0.0558
  C  C46  1  0.081700  0.519100  0.016700  1.0  0.1869
  C  C47  1  0.017600  0.138500  0.783100  1.0  -0.1595
  C  C48  1  0.585300  0.105600  0.246400  1.0  0.7448
  C  C49  1  0.611700  0.141200  0.383400  1.0  -0.1321
  C  C50  1  0.760000  0.170100  0.562900  1.0  0.1745
  C  C51  1  0.503500  0.165700  0.456400  1.0  -0.1157
  C  C52  1  0.145300  0.168800  0.735800  1.0  -0.1399
  C  C53  1  0.893200  0.168200  0.624800  1.0  0.191
  C  C54  1  0.532100  0.190800  0.579600  1.0  0.195
  C  C55  1  0.140200  0.201600  0.636500  1.0  0.17
  C  C56  1  0.274800  0.474700  0.087500  1.0  0.1687
  N  N57  1  0.869100  0.555700  0.939000  1.0  -0.4394
  N  N58  1  0.346800  0.810500  0.367600  1.0  -0.4011
  N  N59  1  0.982100  0.799900  0.421300  1.0  -0.4383
  N  N60  1  0.130900  0.444300  0.061000  1.0  -0.4374
  N  N61  1  0.653200  0.189500  0.632400  1.0  -0.403
  N  N62  1  0.017900  0.200100  0.578700  1.0  -0.4425
  O  O63  1  0.872300  0.912700  0.071700  1.0  -0.7192
  O  O64  1  0.102200  0.912300  0.063100  1.0  -0.7099
  O  O65  1  0.531000  0.882300  0.790900  1.0  -0.7585
  O  O66  1  0.610400  0.140100  0.996900  1.0  -0.7518
  O  O67  1  0.320200  0.931900  0.817300  1.0  -0.7195
  O  O68  1  0.442300  0.238200  0.005000  1.0  -0.6252
  O  O69  1  0.127700  0.087300  0.928300  1.0  -0.7175
  O  O70  1  0.897800  0.087700  0.936900  1.0  -0.708
  O  O71  1  0.469000  0.117700  0.209100  1.0  -0.7603
  O  O72  1  0.389600  0.859900  0.003100  1.0  -0.7529
  O  O73  1  0.679800  0.068100  0.182700  1.0  -0.7184
  O  O74  1  0.557700  0.761800  0.995000  1.0  -0.6242
