# generated using pymatgen
data_EuH9C18(NO2)3
_symmetry_space_group_name_H-M   'P 1'
_cell_length_a   9.65470000
_cell_length_b   11.31950000
_cell_length_c   11.98560000
_cell_angle_alpha   114.77300000
_cell_angle_beta   91.44800000
_cell_angle_gamma   106.41600000
_symmetry_Int_Tables_number   1
_chemical_formula_structural   EuH9C18(NO2)3
_chemical_formula_sum   'Eu2 H18 C36 N6 O12'
_cell_volume   1125.20736592
_cell_formula_units_Z   2
loop_
 _symmetry_equiv_pos_site_id
 _symmetry_equiv_pos_as_xyz
  1  'x, y, z'
loop_
 _atom_site_type_symbol
 _atom_site_label
 _atom_site_symmetry_multiplicity
 _atom_site_fract_x
 _atom_site_fract_y
 _atom_site_fract_z
 _atom_site_occupancy
 _atom_site_charge
  Eu  Eu1  1  0.691580  0.955400  0.971390  1.0  2.1915
  Eu  Eu2  1  0.308420  0.044600  0.028610  1.0  2.1915
  H  H3  1  0.139600  0.675000  0.968200  1.0  0.123
  H  H4  1  0.196000  0.878400  0.241100  1.0  0.1241
  H  H5  1  0.182000  0.869400  0.605000  1.0  0.1189
  H  H6  1  0.305200  0.422800  0.120300  1.0  0.0875
  H  H7  1  0.473900  0.592300  0.091700  1.0  0.1238
  H  H8  1  0.581000  0.831300  0.573400  1.0  0.1351
  H  H9  1  0.769500  0.833900  0.229000  1.0  0.1271
  H  H10  1  0.540900  0.793300  0.370700  1.0  0.0765
  H  H11  1  0.774400  0.780500  0.393500  1.0  0.0823
  H  H12  1  0.860400  0.325000  0.031800  1.0  0.126
  H  H13  1  0.804000  0.121600  0.758900  1.0  0.1248
  H  H14  1  0.818000  0.130600  0.395000  1.0  0.1194
  H  H15  1  0.694800  0.577200  0.879700  1.0  0.0879
  H  H16  1  0.526100  0.407700  0.908300  1.0  0.1247
  H  H17  1  0.419000  0.168700  0.426600  1.0  0.1352
  H  H18  1  0.230500  0.166100  0.771000  1.0  0.1275
  H  H19  1  0.459100  0.206700  0.629300  1.0  0.0768
  H  H20  1  0.225600  0.219500  0.606500  1.0  0.0832
  C  C21  1  0.985700  0.897300  0.107800  1.0  0.7615
  C  C22  1  0.325900  0.653400  0.026200  1.0  -0.1207
  C  C23  1  0.983700  0.862800  0.216900  1.0  -0.1275
  C  C24  1  0.175800  0.624000  0.998100  1.0  -0.0413
  C  C25  1  0.108900  0.859900  0.271600  1.0  -0.0377
  C  C26  1  0.433000  0.763500  0.006100  1.0  0.719
  C  C27  1  0.080700  0.518100  0.015200  1.0  0.1961
  C  C28  1  0.387400  0.858200  0.613400  1.0  -0.1376
  C  C29  1  0.256700  0.854700  0.558800  1.0  -0.0241
  C  C30  1  0.271700  0.473700  0.088500  1.0  0.1744
  C  C31  1  0.374300  0.575900  0.072200  1.0  -0.1568
  C  C32  1  0.104700  0.829400  0.372300  1.0  0.1957
  C  C33  1  0.239100  0.828800  0.434400  1.0  0.204
  C  C34  1  0.415000  0.894700  0.749700  1.0  0.7444
  C  C35  1  0.493500  0.832700  0.540600  1.0  -0.1376
  C  C36  1  0.856300  0.833100  0.263600  1.0  -0.1306
  C  C37  1  0.467900  0.809400  0.418600  1.0  0.1841
  C  C38  1  0.861100  0.801900  0.363300  1.0  0.1776
  C  C39  1  0.014300  0.102700  0.892200  1.0  0.7588
  C  C40  1  0.674100  0.346600  0.973800  1.0  -0.1207
  C  C41  1  0.016300  0.137200  0.783100  1.0  -0.1282
  C  C42  1  0.824200  0.376000  0.001900  1.0  -0.0408
  C  C43  1  0.891100  0.140100  0.728400  1.0  -0.0358
  C  C44  1  0.567000  0.236500  0.993900  1.0  0.717
  C  C45  1  0.919300  0.481900  0.984800  1.0  0.1958
  C  C46  1  0.612600  0.141800  0.386600  1.0  -0.1366
  C  C47  1  0.743300  0.145300  0.441200  1.0  -0.0263
  C  C48  1  0.728300  0.526300  0.911500  1.0  0.1745
  C  C49  1  0.625700  0.424100  0.927800  1.0  -0.156
  C  C50  1  0.895300  0.170600  0.627700  1.0  0.1975
  C  C51  1  0.760900  0.171200  0.565600  1.0  0.2045
  C  C52  1  0.585000  0.105300  0.250300  1.0  0.7433
  C  C53  1  0.506500  0.167300  0.459400  1.0  -0.1361
  C  C54  1  0.143700  0.166900  0.736400  1.0  -0.1308
  C  C55  1  0.532100  0.190600  0.581400  1.0  0.1859
  C  C56  1  0.138900  0.198100  0.636700  1.0  0.1762
  N  N57  1  0.981800  0.800500  0.419200  1.0  -0.427
  N  N58  1  0.344300  0.808400  0.364500  1.0  -0.3996
  N  N59  1  0.127900  0.443700  0.061400  1.0  -0.4404
  N  N60  1  0.018200  0.199500  0.580800  1.0  -0.4269
  N  N61  1  0.655700  0.191600  0.635500  1.0  -0.3996
  N  N62  1  0.872100  0.556300  0.938600  1.0  -0.4421
  O  O63  1  0.102600  0.908700  0.062100  1.0  -0.7191
  O  O64  1  0.396800  0.859500  0.000700  1.0  -0.8016
  O  O65  1  0.320100  0.931300  0.813700  1.0  -0.7217
  O  O66  1  0.559900  0.757100  0.994400  1.0  -0.6205
  O  O67  1  0.874000  0.912700  0.071000  1.0  -0.7591
  O  O68  1  0.532700  0.886500  0.789100  1.0  -0.7474
  O  O69  1  0.897400  0.091300  0.937900  1.0  -0.7167
  O  O70  1  0.603200  0.140500  0.999300  1.0  -0.8031
  O  O71  1  0.679900  0.068700  0.186300  1.0  -0.7219
  O  O72  1  0.440100  0.242900  0.005600  1.0  -0.6178
  O  O73  1  0.126000  0.087300  0.929000  1.0  -0.7573
  O  O74  1  0.467300  0.113500  0.210900  1.0  -0.75
