# generated using pymatgen
data_Co2H28C37N9O11
_symmetry_space_group_name_H-M   'P 1'
_cell_length_a   14.78830000
_cell_length_b   19.44010000
_cell_length_c   19.33860000
_cell_angle_alpha   90.00000000
_cell_angle_beta   99.72200000
_cell_angle_gamma   90.00000000
_symmetry_Int_Tables_number   1
_chemical_formula_structural   Co2H28C37N9O11
_chemical_formula_sum   'Co8 H112 C148 N36 O44'
_cell_volume   5479.73460392
_cell_formula_units_Z   4
loop_
 _symmetry_equiv_pos_site_id
 _symmetry_equiv_pos_as_xyz
  1  'x, y, z'
loop_
 _atom_site_type_symbol
 _atom_site_label
 _atom_site_symmetry_multiplicity
 _atom_site_fract_x
 _atom_site_fract_y
 _atom_site_fract_z
 _atom_site_occupancy
 _atom_site_charge
  Co  Co1  1  0.941350  0.544240  0.387530  1.0  0.9301
  Co  Co2  1  0.165600  0.534890  0.343400  1.0  0.9334
  Co  Co3  1  0.058650  0.044240  0.112470  1.0  0.9313
  Co  Co4  1  0.834400  0.034890  0.156600  1.0  0.9329
  Co  Co5  1  0.058650  0.455760  0.612470  1.0  0.9327
  Co  Co6  1  0.834400  0.465110  0.656600  1.0  0.9337
  Co  Co7  1  0.941350  0.955760  0.887530  1.0  0.9314
  Co  Co8  1  0.165600  0.965110  0.843400  1.0  0.9339
  H  H9  1  0.123700  0.348600  0.247200  1.0  0.1022
  H  H10  1  0.393000  0.414600  0.493900  1.0  0.0976
  H  H11  1  0.374300  0.180300  0.371900  1.0  0.1065
  H  H12  1  0.107600  0.236200  0.210300  1.0  0.0966
  H  H13  1  0.581700  0.289400  0.321800  1.0  0.0938
  H  H14  1  0.186300  0.404500  0.508100  1.0  0.0798
  H  H15  1  0.348800  0.385000  0.352200  1.0  0.1123
  H  H16  1  0.955800  0.329000  0.546200  1.0  0.0781
  H  H17  1  0.768900  0.451700  0.371200  1.0  0.1133
  H  H18  1  0.744200  0.957200  0.383900  1.0  0.1138
  H  H19  1  0.814700  0.953400  0.289100  1.0  0.0698
  H  H20  1  0.691400  0.119800  0.215700  1.0  0.0785
  H  H21  1  0.646800  0.047900  0.398100  1.0  0.1177
  H  H22  1  0.789500  0.644300  0.322800  1.0  0.082
  H  H23  1  0.542100  0.555800  0.296800  1.0  0.1037
  H  H24  1  0.632500  0.651500  0.288400  1.0  0.107
  H  H25  1  0.067400  0.248900  0.391000  1.0  0.1092
  H  H26  1  0.951000  0.251200  0.458300  1.0  0.1206
  H  H27  1  0.196000  0.537000  0.499000  1.0  0.1002
  H  H28  1  0.241600  0.367000  0.404500  1.0  0.2945
  H  H29  1  0.633200  0.396800  0.357700  1.0  0.2795
  H  H30  1  0.608900  0.184100  0.281700  1.0  0.2657
  H  H31  1  0.499900  0.660600  0.446200  1.0  0.3537
  H  H32  1  0.404700  0.638500  0.417100  1.0  0.3411
  H  H33  1  0.846200  0.392800  0.312100  1.0  0.29
  H  H34  1  0.796400  0.326300  0.298100  1.0  0.2591
  H  H35  1  0.812800  0.186200  0.255800  1.0  0.304
  H  H36  1  0.787100  0.254800  0.281000  1.0  0.1896
  H  H37  1  0.876300  0.848600  0.252800  1.0  0.1028
  H  H38  1  0.607000  0.914600  0.006100  1.0  0.0972
  H  H39  1  0.625700  0.680300  0.128100  1.0  0.1061
  H  H40  1  0.892400  0.736200  0.289700  1.0  0.0967
  H  H41  1  0.418300  0.789400  0.178200  1.0  0.0939
  H  H42  1  0.813700  0.904500  0.991900  1.0  0.0799
  H  H43  1  0.651200  0.885000  0.147800  1.0  0.1118
  H  H44  1  0.044200  0.829000  0.953800  1.0  0.0783
  H  H45  1  0.231100  0.951700  0.128800  1.0  0.1125
  H  H46  1  0.255800  0.457200  0.116100  1.0  0.1118
  H  H47  1  0.185300  0.453400  0.210900  1.0  0.0689
  H  H48  1  0.308600  0.619800  0.284300  1.0  0.0772
  H  H49  1  0.353200  0.547900  0.101900  1.0  0.1175
  H  H50  1  0.210500  0.144300  0.177200  1.0  0.0822
  H  H51  1  0.457900  0.055800  0.203200  1.0  0.1026
  H  H52  1  0.367500  0.151500  0.211600  1.0  0.107
  H  H53  1  0.932600  0.748900  0.109000  1.0  0.1087
  H  H54  1  0.049000  0.751200  0.041700  1.0  0.1211
  H  H55  1  0.804000  0.037000  0.001000  1.0  0.1012
  H  H56  1  0.758400  0.867000  0.095500  1.0  0.2935
  H  H57  1  0.366800  0.896800  0.142300  1.0  0.2796
  H  H58  1  0.391100  0.684100  0.218300  1.0  0.267
  H  H59  1  0.500100  0.160600  0.053800  1.0  0.3533
  H  H60  1  0.595300  0.138500  0.082900  1.0  0.3405
  H  H61  1  0.153800  0.892800  0.187900  1.0  0.29
  H  H62  1  0.203600  0.826300  0.201900  1.0  0.2584
  H  H63  1  0.187200  0.686200  0.244200  1.0  0.3041
  H  H64  1  0.212900  0.754800  0.219000  1.0  0.1906
  H  H65  1  0.876300  0.651400  0.752800  1.0  0.1026
  H  H66  1  0.607000  0.585400  0.506100  1.0  0.0969
  H  H67  1  0.625700  0.819700  0.628100  1.0  0.1057
  H  H68  1  0.892400  0.763800  0.789700  1.0  0.0965
  H  H69  1  0.418300  0.710600  0.678200  1.0  0.0941
  H  H70  1  0.813700  0.595500  0.491900  1.0  0.0798
  H  H71  1  0.651200  0.615000  0.647800  1.0  0.112
  H  H72  1  0.044200  0.671000  0.453800  1.0  0.0792
  H  H73  1  0.231100  0.548300  0.628800  1.0  0.1139
  H  H74  1  0.255800  0.042800  0.616100  1.0  0.1133
  H  H75  1  0.185300  0.046600  0.710900  1.0  0.0697
  H  H76  1  0.308600  0.880200  0.784300  1.0  0.0782
  H  H77  1  0.353200  0.952100  0.601900  1.0  0.1177
  H  H78  1  0.210500  0.355700  0.677200  1.0  0.082
  H  H79  1  0.457900  0.444200  0.703200  1.0  0.1031
  H  H80  1  0.367500  0.348500  0.711600  1.0  0.1071
  H  H81  1  0.932600  0.751100  0.609000  1.0  0.109
  H  H82  1  0.049000  0.748800  0.541700  1.0  0.1217
  H  H83  1  0.804000  0.463000  0.501000  1.0  0.1007
  H  H84  1  0.758400  0.633000  0.595500  1.0  0.293
  H  H85  1  0.366800  0.603200  0.642300  1.0  0.2785
  H  H86  1  0.391100  0.815900  0.718300  1.0  0.2676
  H  H87  1  0.500100  0.339400  0.553800  1.0  0.3554
  H  H88  1  0.595300  0.361500  0.582900  1.0  0.3415
  H  H89  1  0.153800  0.607200  0.687900  1.0  0.2892
  H  H90  1  0.203600  0.673700  0.701900  1.0  0.2576
  H  H91  1  0.187200  0.813800  0.744200  1.0  0.3051
  H  H92  1  0.212900  0.745200  0.719000  1.0  0.1908
  H  H93  1  0.123700  0.151400  0.747200  1.0  0.1023
  H  H94  1  0.393000  0.085400  0.993900  1.0  0.0972
  H  H95  1  0.374300  0.319700  0.871900  1.0  0.1065
  H  H96  1  0.107600  0.263800  0.710300  1.0  0.0965
  H  H97  1  0.581700  0.210600  0.821800  1.0  0.0938
  H  H98  1  0.186300  0.095500  0.008100  1.0  0.0801
  H  H99  1  0.348800  0.115000  0.852200  1.0  0.1122
  H  H100  1  0.955800  0.171000  0.046200  1.0  0.0787
  H  H101  1  0.768900  0.048300  0.871200  1.0  0.114
  H  H102  1  0.744200  0.542800  0.883900  1.0  0.1137
  H  H103  1  0.814700  0.546600  0.789100  1.0  0.0698
  H  H104  1  0.691400  0.380200  0.715700  1.0  0.0776
  H  H105  1  0.646800  0.452100  0.898100  1.0  0.1174
  H  H106  1  0.789500  0.855700  0.822800  1.0  0.0819
  H  H107  1  0.542100  0.944200  0.796800  1.0  0.1037
  H  H108  1  0.632500  0.848500  0.788400  1.0  0.1072
  H  H109  1  0.067400  0.251100  0.891000  1.0  0.1095
  H  H110  1  0.951000  0.248800  0.958300  1.0  0.1219
  H  H111  1  0.196000  0.963000  0.999000  1.0  0.1002
  H  H112  1  0.241600  0.133000  0.904500  1.0  0.293
  H  H113  1  0.633200  0.103200  0.857700  1.0  0.2775
  H  H114  1  0.608900  0.315900  0.781700  1.0  0.2663
  H  H115  1  0.499900  0.839400  0.946200  1.0  0.3543
  H  H116  1  0.404700  0.861500  0.917100  1.0  0.3417
  H  H117  1  0.846200  0.107200  0.812100  1.0  0.2885
  H  H118  1  0.796400  0.173700  0.798100  1.0  0.2583
  H  H119  1  0.812800  0.313800  0.755800  1.0  0.3051
  H  H120  1  0.787100  0.245200  0.781000  1.0  0.19
  C  C121  1  0.013100  0.430900  0.301500  1.0  0.7052
  C  C122  1  0.120500  0.532600  0.488800  1.0  0.3502
  C  C123  1  0.318800  0.520600  0.424200  1.0  0.5871
  C  C124  1  0.969700  0.150900  0.199100  1.0  0.7007
  C  C125  1  0.069200  0.325300  0.248900  1.0  -0.0457
  C  C126  1  0.998200  0.358600  0.274500  1.0  -0.1248
  C  C127  1  0.411200  0.511300  0.462700  1.0  -0.1016
  C  C128  1  0.437000  0.449100  0.496400  1.0  -0.1183
  C  C129  1  0.978900  0.222900  0.226600  1.0  -0.1685
  C  C130  1  0.399200  0.222500  0.362300  1.0  -0.0789
  C  C131  1  0.059000  0.258100  0.226200  1.0  -0.0087
  C  C132  1  0.477300  0.564600  0.467100  1.0  0.2346
  C  C133  1  0.906700  0.255100  0.252700  1.0  0.1905
  C  C134  1  0.646500  0.492800  0.333500  1.0  0.2319
  C  C135  1  0.523100  0.287300  0.333200  1.0  -0.0926
  C  C136  1  0.506600  0.418100  0.322400  1.0  0.5261
  C  C137  1  0.139100  0.372500  0.498900  1.0  0.1025
  C  C138  1  0.917800  0.323600  0.276400  1.0  0.2274
  C  C139  1  0.383500  0.345200  0.351200  1.0  -0.161
  C  C140  1  0.003500  0.328800  0.520500  1.0  0.1552
  C  C141  1  0.741300  0.492600  0.354100  1.0  0.1008
  C  C142  1  0.536800  0.157800  0.347900  1.0  0.5825
  C  C143  1  0.474000  0.347800  0.336500  1.0  -0.0634
  C  C144  1  0.348400  0.281200  0.364200  1.0  -0.0933
  C  C145  1  0.732900  0.991500  0.350000  1.0  -0.142
  C  C146  1  0.656700  0.091900  0.306700  1.0  0.2408
  C  C147  1  0.774100  0.989100  0.293000  1.0  0.1772
  C  C148  1  0.487300  0.224700  0.346200  1.0  -0.0416
  C  C149  1  0.701600  0.086300  0.250400  1.0  0.1049
  C  C150  1  0.673900  0.044700  0.358200  1.0  -0.1245
  C  C151  1  0.753700  0.605500  0.326100  1.0  0.1736
  C  C152  1  0.605500  0.553200  0.309800  1.0  -0.2224
  C  C153  1  0.659200  0.610200  0.305200  1.0  -0.1331
  C  C154  1  0.142200  0.324500  0.445700  1.0  0.2324
  C  C155  1  0.069500  0.279500  0.428200  1.0  -0.0862
  C  C156  1  0.000000  0.281700  0.467600  1.0  -0.1679
  C  C157  1  0.257600  0.271700  0.385800  1.0  0.5369
  C  C158  1  0.986900  0.930900  0.198500  1.0  0.7052
  C  C159  1  0.879500  0.032600  0.011200  1.0  0.3505
  C  C160  1  0.681200  0.020600  0.075800  1.0  0.5877
  C  C161  1  0.030300  0.650900  0.300900  1.0  0.7003
  C  C162  1  0.930800  0.825300  0.251100  1.0  -0.0485
  C  C163  1  0.001800  0.858600  0.225500  1.0  -0.1208
  C  C164  1  0.588800  0.011300  0.037300  1.0  -0.1021
  C  C165  1  0.563000  0.949100  0.003600  1.0  -0.1186
  C  C166  1  0.021100  0.722900  0.273400  1.0  -0.1678
  C  C167  1  0.600800  0.722500  0.137700  1.0  -0.0778
  C  C168  1  0.941000  0.758100  0.273800  1.0  -0.0086
  C  C169  1  0.522700  0.064600  0.032900  1.0  0.2341
  C  C170  1  0.093300  0.755100  0.247300  1.0  0.1884
  C  C171  1  0.353500  0.992800  0.166500  1.0  0.2306
  C  C172  1  0.476900  0.787300  0.166800  1.0  -0.0941
  C  C173  1  0.493400  0.918100  0.177600  1.0  0.5279
  C  C174  1  0.860900  0.872500  0.001100  1.0  0.1019
  C  C175  1  0.082200  0.823600  0.223600  1.0  0.2279
  C  C176  1  0.616500  0.845200  0.148800  1.0  -0.1608
  C  C177  1  0.996500  0.828800  0.979500  1.0  0.155
  C  C178  1  0.258700  0.992600  0.145900  1.0  0.1003
  C  C179  1  0.463200  0.657800  0.152100  1.0  0.5799
  C  C180  1  0.526000  0.847800  0.163500  1.0  -0.0635
  C  C181  1  0.651600  0.781200  0.135800  1.0  -0.0936
  C  C182  1  0.267100  0.491500  0.150000  1.0  -0.1429
  C  C183  1  0.343300  0.591900  0.193300  1.0  0.2421
  C  C184  1  0.225900  0.489100  0.207000  1.0  0.1778
  C  C185  1  0.512700  0.724700  0.153800  1.0  -0.0421
  C  C186  1  0.298400  0.586300  0.249600  1.0  0.1055
  C  C187  1  0.326100  0.544700  0.141800  1.0  -0.1199
  C  C188  1  0.246300  0.105500  0.173900  1.0  0.1717
  C  C189  1  0.394500  0.053200  0.190200  1.0  -0.2206
  C  C190  1  0.340800  0.110200  0.194800  1.0  -0.1329
  C  C191  1  0.857800  0.824500  0.054300  1.0  0.232
  C  C192  1  0.930500  0.779500  0.071800  1.0  -0.0867
  C  C193  1  0.000000  0.781700  0.032400  1.0  -0.1678
  C  C194  1  0.742400  0.771700  0.114200  1.0  0.5337
  C  C195  1  0.986900  0.569100  0.698500  1.0  0.7063
  C  C196  1  0.879500  0.467400  0.511200  1.0  0.35
  C  C197  1  0.681200  0.479400  0.575800  1.0  0.5874
  C  C198  1  0.030300  0.849100  0.800900  1.0  0.7005
  C  C199  1  0.930800  0.674700  0.751100  1.0  -0.0482
  C  C200  1  0.001800  0.641400  0.725500  1.0  -0.1186
  C  C201  1  0.588800  0.488700  0.537300  1.0  -0.1021
  C  C202  1  0.563000  0.550900  0.503600  1.0  -0.1189
  C  C203  1  0.021100  0.777100  0.773400  1.0  -0.1686
  C  C204  1  0.600800  0.777500  0.637700  1.0  -0.0769
  C  C205  1  0.941000  0.741900  0.773800  1.0  -0.0087
  C  C206  1  0.522700  0.435400  0.532900  1.0  0.2347
  C  C207  1  0.093300  0.744900  0.747300  1.0  0.1881
  C  C208  1  0.353500  0.507200  0.666500  1.0  0.2298
  C  C209  1  0.476900  0.712700  0.666800  1.0  -0.0943
  C  C210  1  0.493400  0.581900  0.677600  1.0  0.5281
  C  C211  1  0.860900  0.627500  0.501100  1.0  0.1021
  C  C212  1  0.082200  0.676400  0.723600  1.0  0.2271
  C  C213  1  0.616500  0.654800  0.648800  1.0  -0.1614
  C  C214  1  0.996500  0.671200  0.479500  1.0  0.156
  C  C215  1  0.258700  0.507400  0.645900  1.0  0.0995
  C  C216  1  0.463200  0.842200  0.652100  1.0  0.5796
  C  C217  1  0.526000  0.652200  0.663500  1.0  -0.0633
  C  C218  1  0.651600  0.718800  0.635800  1.0  -0.0932
  C  C219  1  0.267100  0.008500  0.650000  1.0  -0.1449
  C  C220  1  0.343300  0.908100  0.693300  1.0  0.2422
  C  C221  1  0.225900  0.010900  0.707000  1.0  0.178
  C  C222  1  0.512700  0.775300  0.653800  1.0  -0.0413
  C  C223  1  0.298400  0.913700  0.749600  1.0  0.1062
  C  C224  1  0.326100  0.955300  0.641800  1.0  -0.1191
  C  C225  1  0.246300  0.394500  0.673900  1.0  0.1717
  C  C226  1  0.394500  0.446800  0.690200  1.0  -0.2201
  C  C227  1  0.340800  0.389800  0.694800  1.0  -0.1347
  C  C228  1  0.857800  0.675500  0.554300  1.0  0.2304
  C  C229  1  0.930500  0.720500  0.571800  1.0  -0.087
  C  C230  1  0.000000  0.718300  0.532400  1.0  -0.1648
  C  C231  1  0.742400  0.728300  0.614200  1.0  0.5364
  C  C232  1  0.013100  0.069100  0.801500  1.0  0.7043
  C  C233  1  0.120500  0.967400  0.988800  1.0  0.3495
  C  C234  1  0.318800  0.979400  0.924200  1.0  0.5869
  C  C235  1  0.969700  0.349100  0.699100  1.0  0.7007
  C  C236  1  0.069200  0.174700  0.748900  1.0  -0.0468
  C  C237  1  0.998200  0.141400  0.774500  1.0  -0.126
  C  C238  1  0.411200  0.988700  0.962700  1.0  -0.1013
  C  C239  1  0.437000  0.050900  0.996400  1.0  -0.1177
  C  C240  1  0.978900  0.277100  0.726600  1.0  -0.1681
  C  C241  1  0.399200  0.277500  0.862300  1.0  -0.0785
  C  C242  1  0.059000  0.241900  0.726200  1.0  -0.0089
  C  C243  1  0.477300  0.935400  0.967100  1.0  0.2352
  C  C244  1  0.906700  0.244900  0.752700  1.0  0.191
  C  C245  1  0.646500  0.007200  0.833500  1.0  0.2316
  C  C246  1  0.523100  0.212700  0.833200  1.0  -0.0927
  C  C247  1  0.506600  0.081900  0.822400  1.0  0.5271
  C  C248  1  0.139100  0.127500  0.998900  1.0  0.1018
  C  C249  1  0.917800  0.176400  0.776400  1.0  0.2273
  C  C250  1  0.383500  0.154800  0.851200  1.0  -0.1605
  C  C251  1  0.003500  0.171200  0.020500  1.0  0.1554
  C  C252  1  0.741300  0.007400  0.854100  1.0  0.0997
  C  C253  1  0.536800  0.342200  0.847900  1.0  0.5822
  C  C254  1  0.474000  0.152200  0.836500  1.0  -0.0637
  C  C255  1  0.348400  0.218800  0.864200  1.0  -0.0928
  C  C256  1  0.732900  0.508500  0.850000  1.0  -0.1414
  C  C257  1  0.656700  0.408100  0.806700  1.0  0.241
  C  C258  1  0.774100  0.510900  0.793000  1.0  0.1769
  C  C259  1  0.487300  0.275300  0.846200  1.0  -0.0408
  C  C260  1  0.701600  0.413700  0.750400  1.0  0.1053
  C  C261  1  0.673900  0.455300  0.858200  1.0  -0.1254
  C  C262  1  0.753700  0.894500  0.826100  1.0  0.1724
  C  C263  1  0.605500  0.946800  0.809800  1.0  -0.2221
  C  C264  1  0.659200  0.889800  0.805200  1.0  -0.1346
  C  C265  1  0.142200  0.175500  0.945700  1.0  0.2307
  C  C266  1  0.069500  0.220500  0.928200  1.0  -0.0877
  C  C267  1  0.000000  0.218300  0.967600  1.0  -0.1692
  C  C268  1  0.257600  0.228300  0.885800  1.0  0.5389
  N  N269  1  0.071800  0.375100  0.537600  1.0  -0.3346
  N  N270  1  0.218500  0.327300  0.410600  1.0  -0.4111
  N  N271  1  0.795000  0.546900  0.350900  1.0  -0.3107
  N  N272  1  0.599800  0.430900  0.340300  1.0  -0.332
  N  N273  1  0.759300  0.034900  0.243000  1.0  -0.3152
  N  N274  1  0.600700  0.150400  0.308600  1.0  -0.3677
  N  N275  1  0.458300  0.629200  0.440100  1.0  -0.6623
  N  N276  1  0.844800  0.350700  0.298100  1.0  -0.5971
  N  N277  1  0.825600  0.228800  0.264600  1.0  -0.627
  N  N278  1  0.928200  0.875100  0.962400  1.0  -0.3342
  N  N279  1  0.781500  0.827300  0.089400  1.0  -0.4117
  N  N280  1  0.205000  0.046900  0.149100  1.0  -0.3094
  N  N281  1  0.400200  0.930900  0.159700  1.0  -0.3329
  N  N282  1  0.240700  0.534900  0.257000  1.0  -0.3151
  N  N283  1  0.399300  0.650400  0.191400  1.0  -0.3692
  N  N284  1  0.541700  0.129200  0.059900  1.0  -0.6619
  N  N285  1  0.155200  0.850700  0.201900  1.0  -0.5985
  N  N286  1  0.174400  0.728800  0.235400  1.0  -0.6248
  N  N287  1  0.928200  0.624900  0.462400  1.0  -0.3344
  N  N288  1  0.781500  0.672700  0.589400  1.0  -0.4144
  N  N289  1  0.205000  0.453100  0.649100  1.0  -0.3095
  N  N290  1  0.400200  0.569100  0.659700  1.0  -0.3336
  N  N291  1  0.240700  0.965100  0.757000  1.0  -0.3152
  N  N292  1  0.399300  0.849600  0.691400  1.0  -0.3693
  N  N293  1  0.541700  0.370800  0.559900  1.0  -0.6611
  N  N294  1  0.155200  0.649300  0.701900  1.0  -0.5974
  N  N295  1  0.174400  0.771200  0.735400  1.0  -0.6247
  N  N296  1  0.071800  0.124900  0.037600  1.0  -0.3344
  N  N297  1  0.218500  0.172700  0.910600  1.0  -0.4138
  N  N298  1  0.795000  0.953100  0.850900  1.0  -0.3107
  N  N299  1  0.599800  0.069100  0.840300  1.0  -0.3318
  N  N300  1  0.759300  0.465100  0.743000  1.0  -0.3153
  N  N301  1  0.600700  0.349600  0.808600  1.0  -0.3675
  N  N302  1  0.458300  0.870800  0.940100  1.0  -0.6617
  N  N303  1  0.844800  0.149300  0.798100  1.0  -0.5967
  N  N304  1  0.825600  0.271200  0.764600  1.0  -0.6281
  O  O305  1  0.517800  0.110700  0.385800  1.0  -0.496
  O  O306  1  0.223200  0.213800  0.387700  1.0  -0.5171
  O  O307  1  0.453400  0.463300  0.297200  1.0  -0.5091
  O  O308  1  0.038500  0.121840  0.180180  1.0  -0.6335
  O  O309  1  0.890200  0.124080  0.194700  1.0  -0.624
  O  O310  1  0.948000  0.461990  0.321080  1.0  -0.6492
  O  O311  1  0.091400  0.456490  0.299400  1.0  -0.6283
  O  O312  1  0.265700  0.468520  0.407910  1.0  -0.636
  O  O313  1  0.288000  0.580220  0.404660  1.0  -0.5891
  O  O314  1  0.085400  0.540140  0.426000  1.0  -0.6585
  O  O315  1  0.080600  0.531810  0.540470  1.0  -0.6061
  O  O316  1  0.482200  0.610700  0.114200  1.0  -0.4942
  O  O317  1  0.776800  0.713800  0.112300  1.0  -0.5179
  O  O318  1  0.546600  0.963300  0.202800  1.0  -0.5114
  O  O319  1  0.961500  0.621840  0.319820  1.0  -0.6349
  O  O320  1  0.109800  0.624080  0.305300  1.0  -0.6245
  O  O321  1  0.052000  0.961990  0.178920  1.0  -0.6505
  O  O322  1  0.908600  0.956490  0.200600  1.0  -0.6312
  O  O323  1  0.734300  0.968520  0.092090  1.0  -0.6346
  O  O324  1  0.712000  0.080220  0.095340  1.0  -0.589
  O  O325  1  0.914600  0.040140  0.074000  1.0  -0.6594
  O  O326  1  0.919400  0.031810  0.959530  1.0  -0.6056
  O  O327  1  0.482200  0.889300  0.614200  1.0  -0.493
  O  O328  1  0.776800  0.786200  0.612300  1.0  -0.5131
  O  O329  1  0.546600  0.536700  0.702800  1.0  -0.5122
  O  O330  1  0.961500  0.878160  0.819820  1.0  -0.6339
  O  O331  1  0.109800  0.875920  0.805300  1.0  -0.6244
  O  O332  1  0.052000  0.538010  0.678920  1.0  -0.6505
  O  O333  1  0.908600  0.543510  0.700600  1.0  -0.6313
  O  O334  1  0.734300  0.531480  0.592090  1.0  -0.6349
  O  O335  1  0.712000  0.419780  0.595340  1.0  -0.5914
  O  O336  1  0.914600  0.459860  0.574000  1.0  -0.6594
  O  O337  1  0.919400  0.468190  0.459530  1.0  -0.6052
  O  O338  1  0.517800  0.389300  0.885800  1.0  -0.4947
  O  O339  1  0.223200  0.286200  0.887700  1.0  -0.5128
  O  O340  1  0.453400  0.036700  0.797200  1.0  -0.5098
  O  O341  1  0.038500  0.378160  0.680180  1.0  -0.6326
  O  O342  1  0.890200  0.375920  0.694700  1.0  -0.6239
  O  O343  1  0.948000  0.038010  0.821080  1.0  -0.6513
  O  O344  1  0.091400  0.043510  0.799400  1.0  -0.629
  O  O345  1  0.265700  0.031480  0.907910  1.0  -0.6362
  O  O346  1  0.288000  0.919780  0.904660  1.0  -0.592
  O  O347  1  0.085400  0.959860  0.926000  1.0  -0.6593
  O  O348  1  0.080600  0.968190  0.040470  1.0  -0.6057
