# generated using pymatgen
data_Cd2H23C34(N3O5)2
_symmetry_space_group_name_H-M   'P 1'
_cell_length_a   10.13180000
_cell_length_b   16.17520000
_cell_length_c   23.10150000
_cell_angle_alpha   90.00000000
_cell_angle_beta   93.41100000
_cell_angle_gamma   90.00000000
_symmetry_Int_Tables_number   1
_chemical_formula_structural   Cd2H23C34(N3O5)2
_chemical_formula_sum   'Cd8 H92 C136 N24 O40'
_cell_volume   3779.25659198
_cell_formula_units_Z   4
loop_
 _symmetry_equiv_pos_site_id
 _symmetry_equiv_pos_as_xyz
  1  'x, y, z'
loop_
 _atom_site_type_symbol
 _atom_site_label
 _atom_site_symmetry_multiplicity
 _atom_site_fract_x
 _atom_site_fract_y
 _atom_site_fract_z
 _atom_site_occupancy
 _atom_site_charge
  Cd  Cd1  1  0.689190  0.079020  0.739860  1.0  0.9923
  Cd  Cd2  1  0.332780  0.995230  0.770870  1.0  0.9659
  Cd  Cd3  1  0.310810  0.579020  0.760140  1.0  0.9926
  Cd  Cd4  1  0.667220  0.495230  0.729130  1.0  0.9667
  Cd  Cd5  1  0.310810  0.920980  0.260140  1.0  0.9924
  Cd  Cd6  1  0.667220  0.004770  0.229130  1.0  0.9664
  Cd  Cd7  1  0.689190  0.420980  0.239860  1.0  0.9923
  Cd  Cd8  1  0.332780  0.504770  0.270870  1.0  0.9661
  H  H9  1  0.976400  0.855200  0.709900  1.0  0.099
  H  H10  1  0.663000  0.935800  0.638300  1.0  0.0714
  H  H11  1  0.008600  0.077100  0.637000  1.0  0.1043
  H  H12  1  0.665300  0.894500  0.350300  1.0  0.0723
  H  H13  1  0.658500  0.916500  0.540500  1.0  0.1243
  H  H14  1  0.077300  0.699500  0.765800  1.0  0.0913
  H  H15  1  0.870600  0.706100  0.801600  1.0  0.118
  H  H16  1  0.998000  0.017200  0.546300  1.0  0.1067
  H  H17  1  0.961300  0.793600  0.619300  1.0  0.1244
  H  H18  1  0.664100  0.903200  0.448700  1.0  0.1269
  H  H19  1  0.194000  0.888900  0.867600  1.0  0.1096
  H  H20  1  0.682400  0.133400  0.335500  1.0  0.0727
  H  H21  1  0.681600  0.149400  0.433300  1.0  0.1301
  H  H22  1  0.685500  0.174300  0.620000  1.0  0.0685
  H  H23  1  0.985600  0.896200  0.902700  1.0  0.1279
  H  H24  1  0.683100  0.162500  0.522200  1.0  0.1273
  H  H25  1  0.046700  0.761000  0.519900  1.0  0.0909
  H  H26  1  0.945700  0.776600  0.467000  1.0  0.1082
  H  H27  1  0.894600  0.762500  0.528900  1.0  0.0906
  H  H28  1  0.789700  0.868300  0.941400  1.0  0.0939
  H  H29  1  0.646300  0.858600  0.912800  1.0  0.1226
  H  H30  1  0.747700  0.917200  0.884700  1.0  0.1021
  H  H31  1  0.987000  0.132000  0.905000  1.0  0.3958
  H  H32  1  0.023600  0.355200  0.790100  1.0  0.0988
  H  H33  1  0.337000  0.435800  0.861700  1.0  0.0714
  H  H34  1  0.991400  0.577100  0.863000  1.0  0.1037
  H  H35  1  0.334700  0.394500  0.149700  1.0  0.0726
  H  H36  1  0.341500  0.416500  0.959500  1.0  0.1241
  H  H37  1  0.922700  0.199500  0.734200  1.0  0.0915
  H  H38  1  0.129400  0.206100  0.698400  1.0  0.1186
  H  H39  1  0.002000  0.517200  0.953700  1.0  0.106
  H  H40  1  0.038700  0.293600  0.880700  1.0  0.1244
  H  H41  1  0.335900  0.403200  0.051300  1.0  0.1265
  H  H42  1  0.806000  0.388900  0.632400  1.0  0.1091
  H  H43  1  0.317600  0.633400  0.164500  1.0  0.0735
  H  H44  1  0.318400  0.649400  0.066700  1.0  0.1299
  H  H45  1  0.314500  0.674300  0.880000  1.0  0.0688
  H  H46  1  0.014400  0.396200  0.597300  1.0  0.128
  H  H47  1  0.316900  0.662500  0.977800  1.0  0.1263
  H  H48  1  0.953300  0.261000  0.980100  1.0  0.0891
  H  H49  1  0.054300  0.276600  0.033000  1.0  0.1087
  H  H50  1  0.105400  0.262500  0.971100  1.0  0.091
  H  H51  1  0.210300  0.368300  0.558600  1.0  0.0954
  H  H52  1  0.353700  0.358600  0.587200  1.0  0.1214
  H  H53  1  0.252300  0.417200  0.615300  1.0  0.1004
  H  H54  1  0.013000  0.632000  0.595000  1.0  0.3938
  H  H55  1  0.023600  0.144800  0.290100  1.0  0.0992
  H  H56  1  0.337000  0.064200  0.361700  1.0  0.0708
  H  H57  1  0.991400  0.922900  0.363000  1.0  0.1032
  H  H58  1  0.334700  0.105500  0.649700  1.0  0.0726
  H  H59  1  0.341500  0.083500  0.459500  1.0  0.1245
  H  H60  1  0.922700  0.300500  0.234200  1.0  0.0914
  H  H61  1  0.129400  0.293900  0.198400  1.0  0.1181
  H  H62  1  0.002000  0.982800  0.453700  1.0  0.1069
  H  H63  1  0.038700  0.206400  0.380700  1.0  0.1254
  H  H64  1  0.335900  0.096800  0.551300  1.0  0.1271
  H  H65  1  0.806000  0.111100  0.132400  1.0  0.1089
  H  H66  1  0.317600  0.866600  0.664500  1.0  0.0733
  H  H67  1  0.318400  0.850600  0.566700  1.0  0.1292
  H  H68  1  0.314500  0.825700  0.380000  1.0  0.0693
  H  H69  1  0.014400  0.103800  0.097300  1.0  0.1283
  H  H70  1  0.316900  0.837500  0.477800  1.0  0.1269
  H  H71  1  0.953300  0.239000  0.480100  1.0  0.0898
  H  H72  1  0.054300  0.223400  0.533000  1.0  0.1086
  H  H73  1  0.105400  0.237500  0.471100  1.0  0.0907
  H  H74  1  0.210300  0.131700  0.058600  1.0  0.0951
  H  H75  1  0.353700  0.141400  0.087200  1.0  0.1216
  H  H76  1  0.252300  0.082800  0.115300  1.0  0.0997
  H  H77  1  0.013000  0.868000  0.095000  1.0  0.3939
  H  H78  1  0.976400  0.644800  0.209900  1.0  0.0988
  H  H79  1  0.663000  0.564200  0.138300  1.0  0.0705
  H  H80  1  0.008600  0.422900  0.137000  1.0  0.1032
  H  H81  1  0.665300  0.605500  0.850300  1.0  0.0723
  H  H82  1  0.658500  0.583500  0.040500  1.0  0.1249
  H  H83  1  0.077300  0.800500  0.265800  1.0  0.0912
  H  H84  1  0.870600  0.793900  0.301600  1.0  0.1185
  H  H85  1  0.998000  0.482800  0.046300  1.0  0.1072
  H  H86  1  0.961300  0.706400  0.119300  1.0  0.1246
  H  H87  1  0.664100  0.596800  0.948700  1.0  0.1276
  H  H88  1  0.194000  0.611100  0.367600  1.0  0.1098
  H  H89  1  0.682400  0.366600  0.835500  1.0  0.0725
  H  H90  1  0.681600  0.350600  0.933300  1.0  0.1293
  H  H91  1  0.685500  0.325700  0.120000  1.0  0.0688
  H  H92  1  0.985600  0.603800  0.402700  1.0  0.1287
  H  H93  1  0.683100  0.337500  0.022200  1.0  0.1272
  H  H94  1  0.046700  0.739000  0.019900  1.0  0.0911
  H  H95  1  0.945700  0.723400  0.967000  1.0  0.1086
  H  H96  1  0.894600  0.737500  0.028900  1.0  0.0907
  H  H97  1  0.789700  0.631700  0.441400  1.0  0.0945
  H  H98  1  0.646300  0.641400  0.412800  1.0  0.1224
  H  H99  1  0.747700  0.582800  0.384700  1.0  0.0988
  H  H100  1  0.987000  0.368000  0.405000  1.0  0.3958
  C  C101  1  0.993800  0.972200  0.683000  1.0  -0.0364
  C  C102  1  0.079500  0.057200  0.823900  1.0  -0.0087
  C  C103  1  0.002600  0.011300  0.740600  1.0  0.3343
  C  C104  1  0.291500  0.791000  0.789600  1.0  0.3476
  C  C105  1  0.485000  0.828200  0.765300  1.0  0.011
  C  C106  1  0.980100  0.887900  0.676900  1.0  -0.0585
  C  C107  1  0.593500  0.885500  0.753400  1.0  0.701
  C  C108  1  0.181700  0.072100  0.870800  1.0  0.723
  C  C109  1  0.672700  0.027800  0.454100  1.0  0.0879
  C  C110  1  0.672400  0.037200  0.517800  1.0  0.0524
  C  C111  1  0.666667  0.982000  0.614500  1.0  0.1788
  C  C112  1  0.999800  0.020100  0.633500  1.0  -0.0736
  C  C113  1  0.978500  0.899500  0.573900  1.0  0.2789
  C  C114  1  0.667400  0.946600  0.367300  1.0  0.1905
  C  C115  1  0.664800  0.969800  0.555500  1.0  -0.1805
  C  C116  1  0.159800  0.794300  0.813200  1.0  -0.0923
  C  C117  1  0.059600  0.739100  0.793500  1.0  -0.0421
  C  C118  1  0.935800  0.743300  0.814600  1.0  -0.1703
  C  C119  1  0.993000  0.984500  0.579200  1.0  -0.1935
  C  C120  1  0.971500  0.850500  0.622700  1.0  -0.2485
  C  C121  1  0.667500  0.951300  0.426800  1.0  -0.1968
  C  C122  1  0.129100  0.852000  0.853900  1.0  -0.0611
  C  C123  1  0.677400  0.086500  0.358600  1.0  0.1854
  C  C124  1  0.908400  0.801700  0.854600  1.0  0.2858
  C  C125  1  0.677800  0.096500  0.417500  1.0  -0.1672
  C  C126  1  0.680000  0.121800  0.603700  1.0  0.1787
  C  C127  1  0.004400  0.856700  0.875100  1.0  -0.2668
  C  C128  1  0.679200  0.115100  0.544700  1.0  -0.1531
  C  C129  1  0.472900  0.743600  0.758000  1.0  0.0125
  C  C130  1  0.569200  0.682700  0.739300  1.0  0.6691
  C  C131  1  0.946000  0.072000  0.818500  1.0  0.0612
  C  C132  1  0.963900  0.786200  0.507700  1.0  -0.0048
  C  C133  1  0.854500  0.110700  0.858100  1.0  0.6984
  C  C134  1  0.737600  0.866300  0.905300  1.0  -0.0134
  C  C135  1  0.006200  0.472200  0.817000  1.0  -0.035
  C  C136  1  0.920500  0.557200  0.676100  1.0  -0.0092
  C  C137  1  0.997400  0.511300  0.759400  1.0  0.3339
  C  C138  1  0.708500  0.291000  0.710400  1.0  0.3472
  C  C139  1  0.515000  0.328200  0.734700  1.0  0.0103
  C  C140  1  0.019900  0.387900  0.823100  1.0  -0.058
  C  C141  1  0.406500  0.385500  0.746600  1.0  0.702
  C  C142  1  0.818300  0.572100  0.629200  1.0  0.7267
  C  C143  1  0.327300  0.527800  0.045900  1.0  0.0882
  C  C144  1  0.327600  0.537200  0.982200  1.0  0.053
  C  C145  1  0.333333  0.482000  0.885500  1.0  0.1802
  C  C146  1  0.000200  0.520100  0.866500  1.0  -0.0738
  C  C147  1  0.021500  0.399500  0.926100  1.0  0.2781
  C  C148  1  0.332600  0.446600  0.132700  1.0  0.1903
  C  C149  1  0.335200  0.469800  0.944500  1.0  -0.1814
  C  C150  1  0.840200  0.294300  0.686800  1.0  -0.0915
  C  C151  1  0.940400  0.239100  0.706500  1.0  -0.0423
  C  C152  1  0.064200  0.243300  0.685400  1.0  -0.1726
  C  C153  1  0.007000  0.484500  0.920800  1.0  -0.1942
  C  C154  1  0.028500  0.350500  0.877300  1.0  -0.2476
  C  C155  1  0.332500  0.451300  0.073200  1.0  -0.1957
  C  C156  1  0.870900  0.352000  0.646100  1.0  -0.0601
  C  C157  1  0.322600  0.586500  0.141400  1.0  0.1844
  C  C158  1  0.091600  0.301700  0.645400  1.0  0.2859
  C  C159  1  0.322200  0.596500  0.082500  1.0  -0.1674
  C  C160  1  0.320000  0.621800  0.896300  1.0  0.1788
  C  C161  1  0.995600  0.356700  0.624900  1.0  -0.2651
  C  C162  1  0.320800  0.615100  0.955300  1.0  -0.1552
  C  C163  1  0.527100  0.243600  0.742000  1.0  0.0128
  C  C164  1  0.430800  0.182700  0.760700  1.0  0.6692
  C  C165  1  0.054000  0.572000  0.681500  1.0  0.0622
  C  C166  1  0.036100  0.286200  0.992300  1.0  -0.0055
  C  C167  1  0.145500  0.610700  0.641900  1.0  0.6973
  C  C168  1  0.262400  0.366300  0.594700  1.0  -0.0158
  C  C169  1  0.006200  0.027800  0.317000  1.0  -0.0354
  C  C170  1  0.920500  0.942800  0.176100  1.0  -0.0089
  C  C171  1  0.997400  0.988700  0.259400  1.0  0.334
  C  C172  1  0.708500  0.209000  0.210400  1.0  0.347
  C  C173  1  0.515000  0.171800  0.234700  1.0  0.0101
  C  C174  1  0.019900  0.112100  0.323100  1.0  -0.0581
  C  C175  1  0.406500  0.114500  0.246600  1.0  0.7019
  C  C176  1  0.818300  0.927900  0.129200  1.0  0.7269
  C  C177  1  0.327300  0.972200  0.545900  1.0  0.0881
  C  C178  1  0.327600  0.962800  0.482200  1.0  0.0526
  C  C179  1  0.333333  0.018000  0.385500  1.0  0.1801
  C  C180  1  0.000200  0.979900  0.366500  1.0  -0.0728
  C  C181  1  0.021500  0.100500  0.426100  1.0  0.2782
  C  C182  1  0.332600  0.053400  0.632700  1.0  0.1897
  C  C183  1  0.335200  0.030200  0.444500  1.0  -0.1825
  C  C184  1  0.840200  0.205700  0.186800  1.0  -0.0916
  C  C185  1  0.940400  0.260900  0.206500  1.0  -0.0418
  C  C186  1  0.064200  0.256700  0.185400  1.0  -0.1726
  C  C187  1  0.007000  0.015500  0.420800  1.0  -0.1948
  C  C188  1  0.028500  0.149500  0.377300  1.0  -0.2502
  C  C189  1  0.332500  0.048700  0.573200  1.0  -0.1972
  C  C190  1  0.870900  0.148000  0.146100  1.0  -0.0595
  C  C191  1  0.322600  0.913500  0.641400  1.0  0.1848
  C  C192  1  0.091600  0.198300  0.145400  1.0  0.2856
  C  C193  1  0.322200  0.903500  0.582500  1.0  -0.1629
  C  C194  1  0.320000  0.878200  0.396300  1.0  0.1788
  C  C195  1  0.995600  0.143300  0.124900  1.0  -0.2657
  C  C196  1  0.320800  0.884900  0.455300  1.0  -0.1542
  C  C197  1  0.527100  0.256400  0.242000  1.0  0.0132
  C  C198  1  0.430800  0.317300  0.260700  1.0  0.6694
  C  C199  1  0.054000  0.928000  0.181500  1.0  0.0625
  C  C200  1  0.036100  0.213800  0.492300  1.0  -0.0042
  C  C201  1  0.145500  0.889300  0.141900  1.0  0.6972
  C  C202  1  0.262400  0.133700  0.094700  1.0  -0.0175
  C  C203  1  0.993800  0.527800  0.183000  1.0  -0.0358
  C  C204  1  0.079500  0.442800  0.323900  1.0  -0.0089
  C  C205  1  0.002600  0.488700  0.240600  1.0  0.3342
  C  C206  1  0.291500  0.709000  0.289600  1.0  0.3476
  C  C207  1  0.485000  0.671800  0.265300  1.0  0.0108
  C  C208  1  0.980100  0.612100  0.176900  1.0  -0.0588
  C  C209  1  0.593500  0.614500  0.253400  1.0  0.7008
  C  C210  1  0.181700  0.427900  0.370800  1.0  0.7234
  C  C211  1  0.672700  0.472200  0.954100  1.0  0.0879
  C  C212  1  0.672400  0.462800  0.017800  1.0  0.0523
  C  C213  1  0.666667  0.518000  0.114500  1.0  0.1791
  C  C214  1  0.999800  0.479900  0.133500  1.0  -0.0728
  C  C215  1  0.978500  0.600500  0.073900  1.0  0.279
  C  C216  1  0.667400  0.553400  0.867300  1.0  0.1901
  C  C217  1  0.664800  0.530200  0.055500  1.0  -0.1824
  C  C218  1  0.159800  0.705700  0.313200  1.0  -0.0924
  C  C219  1  0.059600  0.760900  0.293500  1.0  -0.0417
  C  C220  1  0.935800  0.756700  0.314600  1.0  -0.1696
  C  C221  1  0.993000  0.515500  0.079200  1.0  -0.1941
  C  C222  1  0.971500  0.649500  0.122700  1.0  -0.2509
  C  C223  1  0.667500  0.548700  0.926800  1.0  -0.1982
  C  C224  1  0.129100  0.648000  0.353900  1.0  -0.0603
  C  C225  1  0.677400  0.413500  0.858600  1.0  0.1856
  C  C226  1  0.908400  0.698300  0.354600  1.0  0.2854
  C  C227  1  0.677800  0.403500  0.917500  1.0  -0.1627
  C  C228  1  0.680000  0.378200  0.103700  1.0  0.1785
  C  C229  1  0.004400  0.643300  0.375100  1.0  -0.267
  C  C230  1  0.679200  0.384900  0.044700  1.0  -0.1531
  C  C231  1  0.472900  0.756400  0.258000  1.0  0.0127
  C  C232  1  0.569200  0.817300  0.239300  1.0  0.6694
  C  C233  1  0.946000  0.428000  0.318500  1.0  0.0614
  C  C234  1  0.963900  0.713800  0.007700  1.0  -0.0054
  C  C235  1  0.854500  0.389300  0.358100  1.0  0.6984
  C  C236  1  0.737600  0.633700  0.405300  1.0  -0.0149
  N  N237  1  0.370300  0.858000  0.785060  1.0  -0.4449
  N  N238  1  0.115300  0.019300  0.773970  1.0  -0.4735
  N  N239  1  0.350100  0.720700  0.773650  1.0  -0.4268
  N  N240  1  0.673500  0.056900  0.639490  1.0  -0.3535
  N  N241  1  0.670000  0.012100  0.332600  1.0  -0.3698
  N  N242  1  0.896800  0.043200  0.766110  1.0  -0.4393
  N  N243  1  0.629700  0.358000  0.714940  1.0  -0.4441
  N  N244  1  0.884700  0.519300  0.726030  1.0  -0.4726
  N  N245  1  0.649900  0.220700  0.726350  1.0  -0.4264
  N  N246  1  0.326500  0.556900  0.860510  1.0  -0.3536
  N  N247  1  0.330000  0.512100  0.167400  1.0  -0.3692
  N  N248  1  0.103200  0.543200  0.733890  1.0  -0.4392
  N  N249  1  0.629700  0.142000  0.214940  1.0  -0.4439
  N  N250  1  0.884700  0.980700  0.226030  1.0  -0.473
  N  N251  1  0.649900  0.279300  0.226350  1.0  -0.428
  N  N252  1  0.326500  0.943100  0.360510  1.0  -0.3549
  N  N253  1  0.330000  0.987900  0.667400  1.0  -0.3693
  N  N254  1  0.103200  0.956800  0.233890  1.0  -0.4396
  N  N255  1  0.370300  0.642000  0.285060  1.0  -0.4446
  N  N256  1  0.115300  0.480700  0.273970  1.0  -0.4736
  N  N257  1  0.350100  0.779300  0.273650  1.0  -0.4282
  N  N258  1  0.673500  0.443100  0.139490  1.0  -0.3533
  N  N259  1  0.670000  0.487900  0.832600  1.0  -0.3695
  N  N260  1  0.896800  0.456800  0.266110  1.0  -0.439
  O  O261  1  0.699400  0.857000  0.734710  1.0  -0.4947
  O  O262  1  0.297500  0.049400  0.864700  1.0  -0.6142
  O  O263  1  0.534400  0.607700  0.739820  1.0  -0.657
  O  O264  1  0.737000  0.118300  0.842170  1.0  -0.588
  O  O265  1  0.780300  0.800500  0.871900  1.0  -0.2528
  O  O266  1  0.681700  0.705800  0.725540  1.0  -0.5725
  O  O267  1  0.145200  0.108400  0.916440  1.0  -0.5881
  O  O268  1  0.903800  0.134000  0.908180  1.0  -0.5099
  O  O269  1  0.970600  0.871300  0.518190  1.0  -0.2504
  O  O270  1  0.574800  0.960400  0.761620  1.0  -0.6292
  O  O271  1  0.300600  0.357000  0.765290  1.0  -0.4933
  O  O272  1  0.702500  0.549400  0.635300  1.0  -0.6183
  O  O273  1  0.465600  0.107700  0.760180  1.0  -0.6581
  O  O274  1  0.263000  0.618300  0.657830  1.0  -0.5891
  O  O275  1  0.219700  0.300500  0.628100  1.0  -0.2521
  O  O276  1  0.318300  0.205800  0.774460  1.0  -0.5717
  O  O277  1  0.854800  0.608400  0.583560  1.0  -0.5867
  O  O278  1  0.096200  0.634000  0.591820  1.0  -0.5096
  O  O279  1  0.029400  0.371300  0.981810  1.0  -0.2494
  O  O280  1  0.425200  0.460400  0.738380  1.0  -0.6272
  O  O281  1  0.300600  0.143000  0.265290  1.0  -0.4932
  O  O282  1  0.702500  0.950600  0.135300  1.0  -0.6181
  O  O283  1  0.465600  0.392300  0.260180  1.0  -0.6577
  O  O284  1  0.263000  0.881700  0.157830  1.0  -0.5894
  O  O285  1  0.219700  0.199500  0.128100  1.0  -0.2527
  O  O286  1  0.318300  0.294200  0.274460  1.0  -0.5715
  O  O287  1  0.854800  0.891600  0.083560  1.0  -0.5875
  O  O288  1  0.096200  0.866000  0.091820  1.0  -0.5101
  O  O289  1  0.029400  0.128700  0.481810  1.0  -0.2484
  O  O290  1  0.425200  0.039600  0.238380  1.0  -0.6279
  O  O291  1  0.699400  0.643000  0.234710  1.0  -0.494
  O  O292  1  0.297500  0.450600  0.364700  1.0  -0.6147
  O  O293  1  0.534400  0.892300  0.239820  1.0  -0.6582
  O  O294  1  0.737000  0.381700  0.342170  1.0  -0.5873
  O  O295  1  0.780300  0.699500  0.371900  1.0  -0.253
  O  O296  1  0.681700  0.794200  0.225540  1.0  -0.5727
  O  O297  1  0.145200  0.391600  0.416440  1.0  -0.5878
  O  O298  1  0.903800  0.366000  0.408180  1.0  -0.5101
  O  O299  1  0.970600  0.628700  0.018190  1.0  -0.25
  O  O300  1  0.574800  0.539600  0.261620  1.0  -0.629
