# generated using pymatgen
data_CdNiH10(C2N)6
_symmetry_space_group_name_H-M   'P 1'
_cell_length_a   6.96000000
_cell_length_b   7.71800000
_cell_length_c   9.69300000
_cell_angle_alpha   90.61000000
_cell_angle_beta   91.72000000
_cell_angle_gamma   90.17000000
_symmetry_Int_Tables_number   1
_chemical_formula_structural   CdNiH10(C2N)6
_chemical_formula_sum   'Cd1 Ni1 H10 C12 N6'
_cell_volume   520.41468954
_cell_formula_units_Z   1
loop_
 _symmetry_equiv_pos_site_id
 _symmetry_equiv_pos_as_xyz
  1  'x, y, z'
loop_
 _atom_site_type_symbol
 _atom_site_label
 _atom_site_symmetry_multiplicity
 _atom_site_fract_x
 _atom_site_fract_y
 _atom_site_fract_z
 _atom_site_occupancy
 _atom_site_charge
  Cd  Cd1  1  0.000000  0.000000  0.000000  1.0  0.9487
  Ni  Ni2  1  0.500000  0.500000  0.000000  1.0  0.1056
  H  H3  1  0.959000  0.910550  0.280260  1.0  0.1356
  H  H4  1  0.663010  0.809240  0.206620  1.0  0.1152
  H  H5  1  0.595190  0.024720  0.157130  1.0  0.1079
  H  H6  1  0.811720  0.848080  0.489800  1.0  0.114
  H  H7  1  0.346690  0.111920  0.287130  1.0  0.1159
  H  H8  1  0.041000  0.089450  0.719740  1.0  0.1464
  H  H9  1  0.336990  0.190760  0.793380  1.0  0.1137
  H  H10  1  0.404810  0.975280  0.842870  1.0  0.1082
  H  H11  1  0.188280  0.151920  0.510200  1.0  0.1137
  H  H12  1  0.653310  0.888080  0.712870  1.0  0.1149
  C  C13  1  0.689600  0.660300  0.958200  1.0  0.1393
  C  C14  1  0.335600  0.682700  0.032600  1.0  0.1383
  C  C15  1  0.677100  0.947700  0.233300  1.0  -0.0511
  C  C16  1  0.588800  0.976500  0.373400  1.0  0.0729
  C  C17  1  0.675500  0.914300  0.493500  1.0  -0.1471
  C  C18  1  0.414200  0.062400  0.380400  1.0  -0.1185
  C  C19  1  0.310400  0.339700  0.041800  1.0  0.1368
  C  C20  1  0.664400  0.317300  0.967400  1.0  0.1388
  C  C21  1  0.322900  0.052300  0.766700  1.0  -0.052
  C  C22  1  0.411200  0.023500  0.626600  1.0  0.0731
  C  C23  1  0.324500  0.085700  0.506500  1.0  -0.1493
  C  C24  1  0.585800  0.937600  0.619600  1.0  -0.1196
  N  N25  1  0.801700  0.763400  0.937000  1.0  -0.4097
  N  N26  1  0.236900  0.798000  0.051300  1.0  -0.4275
  N  N27  1  0.881600  0.995800  0.225300  1.0  -0.3156
  N  N28  1  0.198300  0.236600  0.063000  1.0  -0.41
  N  N29  1  0.763100  0.202000  0.948700  1.0  -0.4285
  N  N30  1  0.118400  0.004200  0.774700  1.0  -0.3102
