# generated using pymatgen
data_CdNiH12(C2N)6
_symmetry_space_group_name_H-M   'P 1'
_cell_length_a   9.25400000
_cell_length_b   12.04420000
_cell_length_c   13.17000000
_cell_angle_alpha   80.06370000
_cell_angle_beta   69.43140000
_cell_angle_gamma   67.40790000
_symmetry_Int_Tables_number   1
_chemical_formula_structural   CdNiH12(C2N)6
_chemical_formula_sum   'Cd2 Ni2 H24 C24 N12'
_cell_volume   1267.65394720
_cell_formula_units_Z   2
loop_
 _symmetry_equiv_pos_site_id
 _symmetry_equiv_pos_as_xyz
  1  'x, y, z'
loop_
 _atom_site_type_symbol
 _atom_site_label
 _atom_site_symmetry_multiplicity
 _atom_site_fract_x
 _atom_site_fract_y
 _atom_site_fract_z
 _atom_site_occupancy
 _atom_site_charge
  Cd  Cd1  1  0.000000  0.000000  0.000000  1.0  0.9176
  Cd  Cd2  1  0.000000  0.500000  0.500000  1.0  0.9176
  Ni  Ni3  1  0.362070  0.250000  0.750000  1.0  0.154
  Ni  Ni4  1  0.637930  0.750000  0.250000  1.0  0.1512
  H  H5  1  0.005970  0.308820  0.398640  1.0  0.2282
  H  H6  1  0.842390  0.337990  0.505750  1.0  0.2035
  H  H7  1  0.180400  0.197860  0.506140  1.0  0.104
  H  H8  1  0.998700  0.228020  0.622760  1.0  0.1063
  H  H9  1  0.822950  0.115680  0.662960  1.0  0.1118
  H  H10  1  0.784310  0.932920  0.637140  1.0  0.1185
  H  H11  1  0.713430  0.191180  0.101360  1.0  0.2264
  H  H12  1  0.686130  0.162010  0.994250  1.0  0.2017
  H  H13  1  0.884400  0.302140  0.993860  1.0  0.104
  H  H14  1  0.849480  0.271980  0.877240  1.0  0.1058
  H  H15  1  0.601590  0.384320  0.837040  1.0  0.1126
  H  H16  1  0.354370  0.567080  0.862860  1.0  0.118
  H  H17  1  0.994030  0.691180  0.601360  1.0  0.2277
  H  H18  1  0.157610  0.662010  0.494250  1.0  0.2028
  H  H19  1  0.819600  0.802140  0.493860  1.0  0.1046
  H  H20  1  0.001300  0.771980  0.377240  1.0  0.1063
  H  H21  1  0.177050  0.884320  0.337040  1.0  0.112
  H  H22  1  0.215690  0.067080  0.362860  1.0  0.1186
  H  H23  1  0.286570  0.808820  0.898640  1.0  0.2267
  H  H24  1  0.313870  0.837990  0.005750  1.0  0.2001
  H  H25  1  0.115600  0.697860  0.006140  1.0  0.1037
  H  H26  1  0.150520  0.728020  0.122760  1.0  0.1073
  H  H27  1  0.398410  0.615680  0.162960  1.0  0.1131
  H  H28  1  0.645630  0.432920  0.137140  1.0  0.1179
  C  C29  1  0.231600  0.158300  0.822900  1.0  0.1395
  C  C30  1  0.511100  0.165600  0.825400  1.0  0.1556
  C  C31  1  0.952500  0.786500  0.464900  1.0  -0.077
  C  C32  1  0.977400  0.896700  0.484100  1.0  0.0761
  C  C33  1  0.098800  0.935200  0.408600  1.0  -0.1218
  C  C34  1  0.121600  0.037800  0.423200  1.0  -0.1309
  C  C35  1  0.212800  0.341700  0.677100  1.0  0.1398
  C  C36  1  0.502100  0.334400  0.674600  1.0  0.155
  C  C37  1  0.203900  0.713500  0.035100  1.0  -0.0781
  C  C38  1  0.358200  0.603300  0.015900  1.0  0.0756
  C  C39  1  0.442600  0.564800  0.091400  1.0  -0.1172
  C  C40  1  0.582600  0.462200  0.076800  1.0  -0.1316
  C  C41  1  0.768400  0.841700  0.177100  1.0  0.1401
  C  C42  1  0.488900  0.834400  0.174600  1.0  0.1544
  C  C43  1  0.047500  0.213500  0.535100  1.0  -0.0758
  C  C44  1  0.022600  0.103300  0.515900  1.0  0.0763
  C  C45  1  0.901200  0.064800  0.591400  1.0  -0.1195
  C  C46  1  0.878400  0.962200  0.576800  1.0  -0.1316
  C  C47  1  0.787200  0.658300  0.322900  1.0  0.14
  C  C48  1  0.497900  0.665600  0.325400  1.0  0.1555
  C  C49  1  0.796100  0.286500  0.964900  1.0  -0.0763
  C  C50  1  0.641800  0.396700  0.984100  1.0  0.0756
  C  C51  1  0.557400  0.435200  0.908600  1.0  -0.1153
  C  C52  1  0.417400  0.537800  0.923200  1.0  -0.1305
  N  N53  1  0.155000  0.099100  0.867900  1.0  -0.424
  N  N54  1  0.601200  0.117800  0.873400  1.0  -0.4532
  N  N55  1  0.036800  0.676200  0.522000  1.0  -0.5702
  N  N56  1  0.122000  0.400900  0.632100  1.0  -0.4247
  N  N57  1  0.592400  0.382200  0.626600  1.0  -0.4526
  N  N58  1  0.235000  0.823800  0.978000  1.0  -0.572
  N  N59  1  0.845000  0.900900  0.132100  1.0  -0.4256
  N  N60  1  0.398800  0.882200  0.126600  1.0  -0.4543
  N  N61  1  0.963200  0.323800  0.478000  1.0  -0.5748
  N  N62  1  0.878000  0.599100  0.367900  1.0  -0.4247
  N  N63  1  0.407600  0.617800  0.373400  1.0  -0.4536
  N  N64  1  0.765000  0.176200  0.022000  1.0  -0.5703
