# generated using pymatgen
data_ZnH5C8N3O2
_symmetry_space_group_name_H-M   'P 1'
_cell_length_a   14.73670000
_cell_length_b   9.57630000
_cell_length_c   9.89200000
_cell_angle_alpha   90.00000000
_cell_angle_beta   101.47400000
_cell_angle_gamma   90.00000000
_symmetry_Int_Tables_number   1
_chemical_formula_structural   ZnH5C8N3O2
_chemical_formula_sum   'Zn4 H20 C32 N12 O8'
_cell_volume   1368.09056854
_cell_formula_units_Z   4
loop_
 _symmetry_equiv_pos_site_id
 _symmetry_equiv_pos_as_xyz
  1  'x, y, z'
loop_
 _atom_site_type_symbol
 _atom_site_label
 _atom_site_symmetry_multiplicity
 _atom_site_fract_x
 _atom_site_fract_y
 _atom_site_fract_z
 _atom_site_occupancy
 _atom_site_charge
  Zn  Zn1  1  0.087280  0.073610  0.636780  1.0  0.8487
  Zn  Zn2  1  0.912720  0.573610  0.863220  1.0  0.849
  Zn  Zn3  1  0.912720  0.926390  0.363220  1.0  0.8489
  Zn  Zn4  1  0.087280  0.426390  0.136780  1.0  0.8488
  H  H5  1  0.320400  0.950000  0.953800  1.0  0.0936
  H  H6  1  0.433500  0.199100  0.708500  1.0  0.1069
  H  H7  1  0.042600  0.849400  0.853700  1.0  0.0668
  H  H8  1  0.862400  0.685000  0.559500  1.0  0.0716
  H  H9  1  0.577400  0.161900  0.840700  1.0  0.1016
  H  H10  1  0.679600  0.450000  0.546200  1.0  0.0936
  H  H11  1  0.566500  0.699100  0.791500  1.0  0.1075
  H  H12  1  0.957400  0.349400  0.646300  1.0  0.0694
  H  H13  1  0.137600  0.185000  0.940500  1.0  0.0726
  H  H14  1  0.422600  0.661900  0.659300  1.0  0.102
  H  H15  1  0.679600  0.050000  0.046200  1.0  0.0939
  H  H16  1  0.566500  0.800900  0.291500  1.0  0.1077
  H  H17  1  0.957400  0.150600  0.146300  1.0  0.0695
  H  H18  1  0.137600  0.315000  0.440500  1.0  0.0719
  H  H19  1  0.422600  0.838100  0.159300  1.0  0.1023
  H  H20  1  0.320400  0.550000  0.453800  1.0  0.0936
  H  H21  1  0.433500  0.300900  0.208500  1.0  0.1072
  H  H22  1  0.042600  0.650600  0.353700  1.0  0.0669
  H  H23  1  0.862400  0.815000  0.059500  1.0  0.0718
  H  H24  1  0.577400  0.338100  0.340700  1.0  0.1014
  C  C25  1  0.267800  0.096400  0.727400  1.0  0.6664
  C  C26  1  0.363300  0.073100  0.819000  1.0  -0.1667
  C  C27  1  0.372600  0.991400  0.931600  1.0  -0.0525
  C  C28  1  0.461200  0.967300  0.017500  1.0  0.0319
  C  C29  1  0.440700  0.140400  0.784900  1.0  -0.0929
  C  C30  1  0.005500  0.832600  0.767600  1.0  0.2523
  C  C31  1  0.907700  0.743500  0.608600  1.0  0.2384
  C  C32  1  0.526200  0.118900  0.864500  1.0  -0.1155
  C  C33  1  0.732200  0.596400  0.772600  1.0  0.6655
  C  C34  1  0.636700  0.573100  0.681000  1.0  -0.1685
  C  C35  1  0.627400  0.491400  0.568400  1.0  -0.053
  C  C36  1  0.538800  0.467300  0.482500  1.0  0.03
  C  C37  1  0.559300  0.640400  0.715100  1.0  -0.0943
  C  C38  1  0.994500  0.332600  0.732400  1.0  0.2561
  C  C39  1  0.092300  0.243500  0.891400  1.0  0.2378
  C  C40  1  0.473800  0.618900  0.635500  1.0  -0.1226
  C  C41  1  0.732200  0.903600  0.272600  1.0  0.6656
  C  C42  1  0.636700  0.926900  0.181000  1.0  -0.1683
  C  C43  1  0.627400  0.008600  0.068400  1.0  -0.058
  C  C44  1  0.538800  0.032700  0.982500  1.0  0.0302
  C  C45  1  0.559300  0.859600  0.215100  1.0  -0.0919
  C  C46  1  0.994500  0.167400  0.232400  1.0  0.2565
  C  C47  1  0.092300  0.256500  0.391400  1.0  0.2376
  C  C48  1  0.473800  0.881100  0.135500  1.0  -0.1227
  C  C49  1  0.267800  0.403600  0.227400  1.0  0.6673
  C  C50  1  0.363300  0.426900  0.319000  1.0  -0.1667
  C  C51  1  0.372600  0.508600  0.431600  1.0  -0.0561
  C  C52  1  0.461200  0.532700  0.517500  1.0  0.032
  C  C53  1  0.440700  0.359600  0.284900  1.0  -0.0931
  C  C54  1  0.005500  0.667400  0.267600  1.0  0.2526
  C  C55  1  0.907700  0.756500  0.108600  1.0  0.2386
  C  C56  1  0.526200  0.381100  0.364500  1.0  -0.1209
  N  N57  1  0.006200  0.909800  0.659600  1.0  -0.256
  N  N58  1  0.941300  0.852300  0.554500  1.0  -0.2654
  N  N59  1  0.945500  0.726200  0.741700  1.0  -0.4141
  N  N60  1  0.993800  0.409800  0.840400  1.0  -0.2569
  N  N61  1  0.058700  0.352300  0.945500  1.0  -0.2652
  N  N62  1  0.054500  0.226200  0.758300  1.0  -0.4144
  N  N63  1  0.993800  0.090200  0.340400  1.0  -0.2562
  N  N64  1  0.058700  0.147700  0.445500  1.0  -0.2652
  N  N65  1  0.054500  0.273800  0.258300  1.0  -0.4141
  N  N66  1  0.006200  0.590200  0.159600  1.0  -0.255
  N  N67  1  0.941300  0.647700  0.054500  1.0  -0.2653
  N  N68  1  0.945500  0.773800  0.241700  1.0  -0.4141
  O  O69  1  0.206100  0.009400  0.744400  1.0  -0.5979
  O  O70  1  0.255000  0.194200  0.648000  1.0  -0.5114
  O  O71  1  0.793900  0.509400  0.755600  1.0  -0.5977
  O  O72  1  0.745000  0.694200  0.852000  1.0  -0.5124
  O  O73  1  0.793900  0.990600  0.255600  1.0  -0.5989
  O  O74  1  0.745000  0.805800  0.352000  1.0  -0.5125
  O  O75  1  0.206100  0.490600  0.244400  1.0  -0.5981
  O  O76  1  0.255000  0.305800  0.148000  1.0  -0.5118
