# generated using pymatgen
data_ZnH5C8N3O2
_symmetry_space_group_name_H-M   'P 1'
_cell_length_a   10.08930000
_cell_length_b   26.52120000
_cell_length_c   9.78980000
_cell_angle_alpha   90.00000000
_cell_angle_beta   90.00000000
_cell_angle_gamma   90.00000000
_symmetry_Int_Tables_number   1
_chemical_formula_structural   ZnH5C8N3O2
_chemical_formula_sum   'Zn8 H40 C64 N24 O16'
_cell_volume   2619.55804347
_cell_formula_units_Z   8
loop_
 _symmetry_equiv_pos_site_id
 _symmetry_equiv_pos_as_xyz
  1  'x, y, z'
loop_
 _atom_site_type_symbol
 _atom_site_label
 _atom_site_symmetry_multiplicity
 _atom_site_fract_x
 _atom_site_fract_y
 _atom_site_fract_z
 _atom_site_occupancy
 _atom_site_charge
  Zn  Zn1  1  0.884480  0.544150  0.086670  1.0  0.8431
  Zn  Zn2  1  0.615520  0.455850  0.586670  1.0  0.8433
  Zn  Zn3  1  0.115520  0.044150  0.913330  1.0  0.843
  Zn  Zn4  1  0.384480  0.955850  0.413330  1.0  0.8427
  Zn  Zn5  1  0.115520  0.455850  0.913330  1.0  0.8427
  Zn  Zn6  1  0.384480  0.544150  0.413330  1.0  0.843
  Zn  Zn7  1  0.884480  0.955850  0.086670  1.0  0.8432
  Zn  Zn8  1  0.615520  0.044150  0.586670  1.0  0.8433
  H  H9  1  0.639300  0.662400  0.987600  1.0  0.1068
  H  H10  1  0.471900  0.706400  0.885200  1.0  0.1079
  H  H11  1  0.014100  0.706500  0.232500  1.0  0.0955
  H  H12  1  0.835700  0.473700  0.355900  1.0  0.0758
  H  H13  1  0.588200  0.563000  0.174100  1.0  0.0831
  H  H14  1  0.860700  0.337600  0.487600  1.0  0.1074
  H  H15  1  0.028100  0.293600  0.385200  1.0  0.1081
  H  H16  1  0.485900  0.293500  0.732500  1.0  0.0953
  H  H17  1  0.664300  0.526300  0.855900  1.0  0.0761
  H  H18  1  0.911800  0.437000  0.674100  1.0  0.0827
  H  H19  1  0.360700  0.162400  0.012400  1.0  0.1064
  H  H20  1  0.528100  0.206400  0.114800  1.0  0.1078
  H  H21  1  0.985900  0.206500  0.767500  1.0  0.0951
  H  H22  1  0.164300  0.973700  0.644100  1.0  0.076
  H  H23  1  0.411800  0.063000  0.825900  1.0  0.0832
  H  H24  1  0.139300  0.837600  0.512400  1.0  0.1072
  H  H25  1  0.971900  0.793600  0.614800  1.0  0.1078
  H  H26  1  0.514100  0.793500  0.267500  1.0  0.0953
  H  H27  1  0.335700  0.026300  0.144100  1.0  0.0761
  H  H28  1  0.088200  0.937000  0.325900  1.0  0.0829
  H  H29  1  0.360700  0.337600  0.012400  1.0  0.1073
  H  H30  1  0.528100  0.293600  0.114800  1.0  0.1076
  H  H31  1  0.985900  0.293500  0.767500  1.0  0.0951
  H  H32  1  0.164300  0.526300  0.644100  1.0  0.076
  H  H33  1  0.411800  0.437000  0.825900  1.0  0.0828
  H  H34  1  0.139300  0.662400  0.512400  1.0  0.1067
  H  H35  1  0.971900  0.706400  0.614800  1.0  0.1082
  H  H36  1  0.514100  0.706500  0.267500  1.0  0.0951
  H  H37  1  0.335700  0.473700  0.144100  1.0  0.0761
  H  H38  1  0.088200  0.563000  0.325900  1.0  0.0833
  H  H39  1  0.639300  0.837600  0.987600  1.0  0.1074
  H  H40  1  0.471900  0.793600  0.885200  1.0  0.1078
  H  H41  1  0.014100  0.793500  0.232500  1.0  0.0951
  H  H42  1  0.835700  0.026300  0.355900  1.0  0.076
  H  H43  1  0.588200  0.937000  0.174100  1.0  0.0829
  H  H44  1  0.860700  0.162400  0.487600  1.0  0.1063
  H  H45  1  0.028100  0.206400  0.385200  1.0  0.1079
  H  H46  1  0.485900  0.206500  0.732500  1.0  0.0949
  H  H47  1  0.664300  0.973700  0.855900  1.0  0.0759
  H  H48  1  0.911800  0.063000  0.674100  1.0  0.083
  C  C49  1  0.868100  0.640410  0.121500  1.0  0.691
  C  C50  1  0.852700  0.696930  0.118400  1.0  -0.1412
  C  C51  1  0.747400  0.722930  0.049900  1.0  0.0528
  C  C52  1  0.641200  0.697480  0.987600  1.0  -0.1174
  C  C53  1  0.541000  0.723710  0.927000  1.0  -0.0854
  C  C54  1  0.947800  0.723650  0.185700  1.0  -0.0628
  C  C55  1  0.760300  0.492280  0.335000  1.0  0.2428
  C  C56  1  0.625800  0.540800  0.236700  1.0  0.2612
  C  C57  1  0.631900  0.359590  0.621500  1.0  0.6902
  C  C58  1  0.647300  0.303070  0.618400  1.0  -0.1416
  C  C59  1  0.752600  0.277070  0.549900  1.0  0.0514
  C  C60  1  0.858800  0.302520  0.487600  1.0  -0.119
  C  C61  1  0.959000  0.276290  0.427000  1.0  -0.0843
  C  C62  1  0.552200  0.276350  0.685700  1.0  -0.0612
  C  C63  1  0.739700  0.507720  0.835000  1.0  0.2429
  C  C64  1  0.874200  0.459200  0.736700  1.0  0.261
  C  C65  1  0.131900  0.140410  0.878500  1.0  0.6907
  C  C66  1  0.147300  0.196930  0.881600  1.0  -0.1418
  C  C67  1  0.252600  0.222930  0.950100  1.0  0.0521
  C  C68  1  0.358800  0.197480  0.012400  1.0  -0.1174
  C  C69  1  0.459000  0.223710  0.073000  1.0  -0.0859
  C  C70  1  0.052200  0.223650  0.814300  1.0  -0.0622
  C  C71  1  0.239700  0.992280  0.665000  1.0  0.2432
  C  C72  1  0.374200  0.040800  0.763300  1.0  0.261
  C  C73  1  0.368100  0.859590  0.378500  1.0  0.69
  C  C74  1  0.352700  0.803070  0.381600  1.0  -0.1405
  C  C75  1  0.247400  0.777070  0.450100  1.0  0.0521
  C  C76  1  0.141200  0.802520  0.512400  1.0  -0.1199
  C  C77  1  0.041000  0.776290  0.573000  1.0  -0.0889
  C  C78  1  0.447800  0.776350  0.314300  1.0  -0.0626
  C  C79  1  0.260300  0.007720  0.165000  1.0  0.2434
  C  C80  1  0.125800  0.959200  0.263300  1.0  0.2613
  C  C81  1  0.131900  0.359590  0.878500  1.0  0.6898
  C  C82  1  0.147300  0.303070  0.881600  1.0  -0.1416
  C  C83  1  0.252600  0.277070  0.950100  1.0  0.0503
  C  C84  1  0.358800  0.302520  0.012400  1.0  -0.1195
  C  C85  1  0.459000  0.276290  0.073000  1.0  -0.0863
  C  C86  1  0.052200  0.276350  0.814300  1.0  -0.0614
  C  C87  1  0.239700  0.507720  0.665000  1.0  0.2433
  C  C88  1  0.374200  0.459200  0.763300  1.0  0.2613
  C  C89  1  0.368100  0.640410  0.378500  1.0  0.6907
  C  C90  1  0.352700  0.696930  0.381600  1.0  -0.1411
  C  C91  1  0.247400  0.722930  0.450100  1.0  0.0518
  C  C92  1  0.141200  0.697480  0.512400  1.0  -0.1178
  C  C93  1  0.041000  0.723710  0.573000  1.0  -0.088
  C  C94  1  0.447800  0.723650  0.314300  1.0  -0.0633
  C  C95  1  0.260300  0.492280  0.165000  1.0  0.2428
  C  C96  1  0.125800  0.540800  0.263300  1.0  0.261
  C  C97  1  0.868100  0.859590  0.121500  1.0  0.6903
  C  C98  1  0.852700  0.803070  0.118400  1.0  -0.1407
  C  C99  1  0.747400  0.777070  0.049900  1.0  0.0511
  C  C100  1  0.641200  0.802520  0.987600  1.0  -0.1187
  C  C101  1  0.541000  0.776290  0.927000  1.0  -0.0853
  C  C102  1  0.947800  0.776350  0.185700  1.0  -0.0622
  C  C103  1  0.760300  0.007720  0.335000  1.0  0.2431
  C  C104  1  0.625800  0.959200  0.236700  1.0  0.2614
  C  C105  1  0.631900  0.140410  0.621500  1.0  0.6911
  C  C106  1  0.647300  0.196930  0.618400  1.0  -0.1419
  C  C107  1  0.752600  0.222930  0.549900  1.0  0.0508
  C  C108  1  0.858800  0.197480  0.487600  1.0  -0.1178
  C  C109  1  0.959000  0.223710  0.427000  1.0  -0.0847
  C  C110  1  0.552200  0.223650  0.685700  1.0  -0.0619
  C  C111  1  0.739700  0.992280  0.835000  1.0  0.2432
  C  C112  1  0.874200  0.040800  0.736700  1.0  0.2608
  N  N113  1  0.748500  0.521870  0.224300  1.0  -0.4197
  N  N114  1  0.564900  0.524800  0.345900  1.0  -0.2719
  N  N115  1  0.652100  0.492820  0.410400  1.0  -0.2284
  N  N116  1  0.751500  0.478130  0.724300  1.0  -0.4207
  N  N117  1  0.935100  0.475200  0.845900  1.0  -0.2718
  N  N118  1  0.847900  0.507180  0.910400  1.0  -0.2288
  N  N119  1  0.251500  0.021870  0.775700  1.0  -0.4209
  N  N120  1  0.435100  0.024800  0.654100  1.0  -0.2717
  N  N121  1  0.347900  0.992820  0.589600  1.0  -0.2284
  N  N122  1  0.248500  0.978130  0.275700  1.0  -0.4198
  N  N123  1  0.064900  0.975200  0.154100  1.0  -0.2714
  N  N124  1  0.152100  0.007180  0.089600  1.0  -0.2279
  N  N125  1  0.251500  0.478130  0.775700  1.0  -0.4211
  N  N126  1  0.435100  0.475200  0.654100  1.0  -0.2719
  N  N127  1  0.347900  0.507180  0.589600  1.0  -0.2283
  N  N128  1  0.248500  0.521870  0.275700  1.0  -0.4194
  N  N129  1  0.064900  0.524800  0.154100  1.0  -0.2713
  N  N130  1  0.152100  0.492820  0.089600  1.0  -0.2282
  N  N131  1  0.748500  0.978130  0.224300  1.0  -0.4201
  N  N132  1  0.564900  0.975200  0.345900  1.0  -0.2718
  N  N133  1  0.652100  0.007180  0.410400  1.0  -0.2287
  N  N134  1  0.751500  0.021870  0.724300  1.0  -0.4206
  N  N135  1  0.935100  0.024800  0.845900  1.0  -0.2717
  N  N136  1  0.847900  0.992820  0.910400  1.0  -0.2285
  O  O137  1  0.830700  0.613760  0.021900  1.0  -0.6276
  O  O138  1  0.922100  0.620730  0.220600  1.0  -0.6041
  O  O139  1  0.669300  0.386240  0.521900  1.0  -0.6271
  O  O140  1  0.577900  0.379270  0.720600  1.0  -0.6028
  O  O141  1  0.169300  0.113760  0.978100  1.0  -0.6265
  O  O142  1  0.077900  0.120730  0.779400  1.0  -0.6019
  O  O143  1  0.330700  0.886240  0.478100  1.0  -0.6267
  O  O144  1  0.422100  0.879270  0.279400  1.0  -0.6027
  O  O145  1  0.169300  0.386240  0.978100  1.0  -0.6267
  O  O146  1  0.077900  0.379270  0.779400  1.0  -0.6016
  O  O147  1  0.330700  0.613760  0.478100  1.0  -0.6266
  O  O148  1  0.422100  0.620730  0.279400  1.0  -0.6031
  O  O149  1  0.830700  0.886240  0.021900  1.0  -0.6274
  O  O150  1  0.922100  0.879270  0.220600  1.0  -0.6038
  O  O151  1  0.669300  0.113760  0.521900  1.0  -0.6274
  O  O152  1  0.577900  0.120730  0.720600  1.0  -0.6029
