# generated using pymatgen
data_Ga7(P4O17)2
_symmetry_space_group_name_H-M   'P 1'
_cell_length_a   13.98770000
_cell_length_b   11.91980000
_cell_length_c   23.04540000
_cell_angle_alpha   90.00000000
_cell_angle_beta   104.26900000
_cell_angle_gamma   90.00000000
_symmetry_Int_Tables_number   1
_chemical_formula_structural   Ga7(P4O17)2
_chemical_formula_sum   'Ga28 P32 O136'
_cell_volume   3723.83288551
_cell_formula_units_Z   4
loop_
 _symmetry_equiv_pos_site_id
 _symmetry_equiv_pos_as_xyz
  1  'x, y, z'
loop_
 _atom_site_type_symbol
 _atom_site_label
 _atom_site_symmetry_multiplicity
 _atom_site_fract_x
 _atom_site_fract_y
 _atom_site_fract_z
 _atom_site_occupancy
 _atom_site_charge
  Ga  Ga1  1  0.872150  0.541760  0.553260  1.0  1.7165
  Ga  Ga2  1  0.840600  0.675200  0.411290  1.0  1.6163
  Ga  Ga3  1  0.997550  0.131630  0.438250  1.0  1.7231
  Ga  Ga4  1  0.372150  0.041760  0.553260  1.0  1.7165
  Ga  Ga5  1  0.340600  0.175200  0.411290  1.0  1.6163
  Ga  Ga6  1  0.497550  0.631630  0.438250  1.0  1.7231
  Ga  Ga7  1  0.127850  0.541760  0.946740  1.0  1.7164
  Ga  Ga8  1  0.159400  0.675200  0.088710  1.0  1.6148
  Ga  Ga9  1  0.002450  0.131630  0.061750  1.0  1.7245
  Ga  Ga10  1  0.627850  0.041760  0.946740  1.0  1.7164
  Ga  Ga11  1  0.659400  0.175200  0.088710  1.0  1.6148
  Ga  Ga12  1  0.502450  0.631630  0.061750  1.0  1.7245
  Ga  Ga13  1  0.127850  0.458240  0.446740  1.0  1.7152
  Ga  Ga14  1  0.159400  0.324800  0.588710  1.0  1.6124
  Ga  Ga15  1  0.002450  0.868370  0.561750  1.0  1.7242
  Ga  Ga16  1  0.627850  0.958240  0.446740  1.0  1.7152
  Ga  Ga17  1  0.659400  0.824800  0.588710  1.0  1.6124
  Ga  Ga18  1  0.502450  0.368370  0.561750  1.0  1.7242
  Ga  Ga19  1  0.872150  0.458240  0.053260  1.0  1.7154
  Ga  Ga20  1  0.840600  0.324800  0.911290  1.0  1.6141
  Ga  Ga21  1  0.997550  0.868370  0.938250  1.0  1.7227
  Ga  Ga22  1  0.372150  0.958240  0.053260  1.0  1.7154
  Ga  Ga23  1  0.340600  0.824800  0.911290  1.0  1.6141
  Ga  Ga24  1  0.497550  0.368370  0.938250  1.0  1.7227
  Ga  Ga25  1  0.000000  0.366040  0.250000  1.0  1.6882
  Ga  Ga26  1  0.500000  0.866040  0.250000  1.0  1.6882
  Ga  Ga27  1  0.000000  0.633960  0.750000  1.0  1.688
  Ga  Ga28  1  0.500000  0.133960  0.750000  1.0  1.688
  P  P29  1  0.047930  0.656930  0.506130  1.0  1.8527
  P  P30  1  0.960890  0.557840  0.330690  1.0  1.7616
  P  P31  1  0.850880  0.929690  0.438140  1.0  1.8707
  P  P32  1  0.115940  0.229480  0.358880  1.0  1.8218
  P  P33  1  0.547930  0.156930  0.506130  1.0  1.8527
  P  P34  1  0.460890  0.057840  0.330690  1.0  1.7616
  P  P35  1  0.350880  0.429690  0.438140  1.0  1.8707
  P  P36  1  0.615940  0.729480  0.358880  1.0  1.822
  P  P37  1  0.952070  0.656930  0.993870  1.0  1.8523
  P  P38  1  0.039110  0.557840  0.169310  1.0  1.7625
  P  P39  1  0.149120  0.929690  0.061860  1.0  1.8708
  P  P40  1  0.884060  0.229480  0.141120  1.0  1.8238
  P  P41  1  0.452070  0.156930  0.993870  1.0  1.8523
  P  P42  1  0.539110  0.057840  0.169310  1.0  1.7625
  P  P43  1  0.649120  0.429690  0.061860  1.0  1.8708
  P  P44  1  0.384060  0.729480  0.141120  1.0  1.824
  P  P45  1  0.952070  0.343070  0.493870  1.0  1.8527
  P  P46  1  0.039110  0.442160  0.669310  1.0  1.7624
  P  P47  1  0.149120  0.070310  0.561860  1.0  1.871
  P  P48  1  0.884060  0.770520  0.641120  1.0  1.8244
  P  P49  1  0.452070  0.843070  0.493870  1.0  1.8527
  P  P50  1  0.539110  0.942160  0.669310  1.0  1.7624
  P  P51  1  0.649120  0.570310  0.561860  1.0  1.871
  P  P52  1  0.384060  0.270520  0.641120  1.0  1.8246
  P  P53  1  0.047930  0.343070  0.006130  1.0  1.8529
  P  P54  1  0.960890  0.442160  0.830690  1.0  1.7611
  P  P55  1  0.850880  0.070310  0.938140  1.0  1.8701
  P  P56  1  0.115940  0.770520  0.858880  1.0  1.8227
  P  P57  1  0.547930  0.843070  0.006130  1.0  1.8529
  P  P58  1  0.460890  0.942160  0.830690  1.0  1.7611
  P  P59  1  0.350880  0.570310  0.938140  1.0  1.8701
  P  P60  1  0.615940  0.270520  0.858880  1.0  1.8229
  O  O61  1  0.759000  0.000600  0.432800  1.0  -0.7478
  O  O62  1  0.062400  0.541200  0.372290  1.0  -0.7692
  O  O63  1  0.137700  0.601500  0.491490  1.0  -0.7128
  O  O64  1  0.133600  0.319400  0.405010  1.0  -0.8295
  O  O65  1  0.001400  0.582900  0.545090  1.0  -0.8222
  O  O66  1  0.806500  0.617900  0.478290  1.0  -0.6994
  O  O67  1  0.976400  0.697800  0.449180  1.0  -0.7999
  O  O68  1  0.203800  0.151300  0.365250  1.0  -0.7379
  O  O69  1  0.872900  0.568500  0.359540  1.0  -0.7627
  O  O70  1  0.931500  0.453800  0.289530  1.0  -0.8276
  O  O71  1  0.964400  0.663500  0.292740  1.0  -0.5226
  O  O72  1  0.831200  0.830100  0.395730  1.0  -0.7821
  O  O73  1  0.933000  0.998500  0.421890  1.0  -0.8858
  O  O74  1  0.886300  0.891100  0.504550  1.0  -0.9265
  O  O75  1  0.088100  0.766200  0.543190  1.0  -0.7646
  O  O76  1  0.025500  0.158400  0.365470  1.0  -0.7672
  O  O77  1  0.092600  0.274700  0.294910  1.0  -0.8491
  O  O78  1  0.259000  0.500600  0.432800  1.0  -0.7478
  O  O79  1  0.562400  0.041200  0.372290  1.0  -0.7692
  O  O80  1  0.637700  0.101500  0.491490  1.0  -0.7128
  O  O81  1  0.633600  0.819400  0.405010  1.0  -0.8295
  O  O82  1  0.501400  0.082900  0.545090  1.0  -0.8222
  O  O83  1  0.306500  0.117900  0.478290  1.0  -0.6994
  O  O84  1  0.476400  0.197800  0.449180  1.0  -0.7999
  O  O85  1  0.703800  0.651300  0.365250  1.0  -0.7379
  O  O86  1  0.372900  0.068500  0.359540  1.0  -0.7627
  O  O87  1  0.431500  0.953800  0.289530  1.0  -0.8276
  O  O88  1  0.464400  0.163500  0.292740  1.0  -0.5226
  O  O89  1  0.331200  0.330100  0.395730  1.0  -0.7817
  O  O90  1  0.433000  0.498500  0.421890  1.0  -0.8858
  O  O91  1  0.386300  0.391100  0.504550  1.0  -0.9265
  O  O92  1  0.588100  0.266200  0.543190  1.0  -0.7646
  O  O93  1  0.525500  0.658400  0.365470  1.0  -0.7672
  O  O94  1  0.592600  0.774700  0.294910  1.0  -0.8491
  O  O95  1  0.241000  0.000600  0.067200  1.0  -0.7475
  O  O96  1  0.937600  0.541200  0.127710  1.0  -0.7701
  O  O97  1  0.862300  0.601500  0.008510  1.0  -0.7118
  O  O98  1  0.866400  0.319400  0.094990  1.0  -0.8286
  O  O99  1  0.998600  0.582900  0.954910  1.0  -0.823
  O  O100  1  0.193500  0.617900  0.021710  1.0  -0.6979
  O  O101  1  0.023600  0.697800  0.050820  1.0  -0.801
  O  O102  1  0.796200  0.151300  0.134750  1.0  -0.7385
  O  O103  1  0.127100  0.568500  0.140460  1.0  -0.7641
  O  O104  1  0.068500  0.453800  0.210470  1.0  -0.8288
  O  O105  1  0.035600  0.663500  0.207260  1.0  -0.525
  O  O106  1  0.168800  0.830100  0.104270  1.0  -0.7828
  O  O107  1  0.067000  0.998500  0.078110  1.0  -0.8871
  O  O108  1  0.113700  0.891100  0.995450  1.0  -0.925
  O  O109  1  0.911900  0.766200  0.956810  1.0  -0.7636
  O  O110  1  0.974500  0.158400  0.134530  1.0  -0.7673
  O  O111  1  0.907400  0.274700  0.205090  1.0  -0.8481
  O  O112  1  0.741000  0.500600  0.067200  1.0  -0.7475
  O  O113  1  0.437600  0.041200  0.127710  1.0  -0.7701
  O  O114  1  0.362300  0.101500  0.008510  1.0  -0.7118
  O  O115  1  0.366400  0.819400  0.094990  1.0  -0.8286
  O  O116  1  0.498600  0.082900  0.954910  1.0  -0.823
  O  O117  1  0.693500  0.117900  0.021710  1.0  -0.6979
  O  O118  1  0.523600  0.197800  0.050820  1.0  -0.801
  O  O119  1  0.296200  0.651300  0.134750  1.0  -0.7385
  O  O120  1  0.627100  0.068500  0.140460  1.0  -0.7642
  O  O121  1  0.568500  0.953800  0.210470  1.0  -0.8288
  O  O122  1  0.535600  0.163500  0.207260  1.0  -0.525
  O  O123  1  0.668800  0.330100  0.104270  1.0  -0.7826
  O  O124  1  0.567000  0.498500  0.078110  1.0  -0.8871
  O  O125  1  0.613700  0.391100  0.995450  1.0  -0.925
  O  O126  1  0.411900  0.266200  0.956810  1.0  -0.7636
  O  O127  1  0.474500  0.658400  0.134530  1.0  -0.7673
  O  O128  1  0.407400  0.774700  0.205090  1.0  -0.8481
  O  O129  1  0.241000  0.999400  0.567200  1.0  -0.7473
  O  O130  1  0.937600  0.458800  0.627710  1.0  -0.7691
  O  O131  1  0.862300  0.398500  0.508510  1.0  -0.7107
  O  O132  1  0.866400  0.680600  0.594990  1.0  -0.8283
  O  O133  1  0.998600  0.417100  0.454910  1.0  -0.8229
  O  O134  1  0.193500  0.382100  0.521710  1.0  -0.6985
  O  O135  1  0.023600  0.302200  0.550820  1.0  -0.8005
  O  O136  1  0.796200  0.848700  0.634750  1.0  -0.7361
  O  O137  1  0.127100  0.431500  0.640460  1.0  -0.7635
  O  O138  1  0.068500  0.546200  0.710470  1.0  -0.8287
  O  O139  1  0.035600  0.336500  0.707260  1.0  -0.5218
  O  O140  1  0.168800  0.169900  0.604270  1.0  -0.7814
  O  O141  1  0.067000  0.001500  0.578110  1.0  -0.8872
  O  O142  1  0.113700  0.108900  0.495450  1.0  -0.9255
  O  O143  1  0.911900  0.233800  0.456810  1.0  -0.7635
  O  O144  1  0.974500  0.841600  0.634530  1.0  -0.7662
  O  O145  1  0.907400  0.725300  0.705090  1.0  -0.8484
  O  O146  1  0.741000  0.499400  0.567200  1.0  -0.7473
  O  O147  1  0.437600  0.958800  0.627710  1.0  -0.7691
  O  O148  1  0.362300  0.898500  0.508510  1.0  -0.7107
  O  O149  1  0.366400  0.180600  0.594990  1.0  -0.8283
  O  O150  1  0.498600  0.917100  0.454910  1.0  -0.8229
  O  O151  1  0.693500  0.882100  0.521710  1.0  -0.6985
  O  O152  1  0.523600  0.802200  0.550820  1.0  -0.8005
  O  O153  1  0.296200  0.348700  0.634750  1.0  -0.7361
  O  O154  1  0.627100  0.931500  0.640460  1.0  -0.7639
  O  O155  1  0.568500  0.046200  0.710470  1.0  -0.8287
  O  O156  1  0.535600  0.836500  0.707260  1.0  -0.5218
  O  O157  1  0.668800  0.669900  0.604270  1.0  -0.7811
  O  O158  1  0.567000  0.501500  0.578110  1.0  -0.8872
  O  O159  1  0.613700  0.608900  0.495450  1.0  -0.9255
  O  O160  1  0.411900  0.733800  0.456810  1.0  -0.7635
  O  O161  1  0.474500  0.341600  0.634530  1.0  -0.7662
  O  O162  1  0.407400  0.225300  0.705090  1.0  -0.8484
  O  O163  1  0.759000  0.999400  0.932800  1.0  -0.7477
  O  O164  1  0.062400  0.458800  0.872290  1.0  -0.7687
  O  O165  1  0.137700  0.398500  0.991490  1.0  -0.7123
  O  O166  1  0.133600  0.680600  0.905010  1.0  -0.8293
  O  O167  1  0.001400  0.417100  0.045090  1.0  -0.8225
  O  O168  1  0.806500  0.382100  0.978290  1.0  -0.6995
  O  O169  1  0.976400  0.302200  0.949180  1.0  -0.8011
  O  O170  1  0.203800  0.848700  0.865250  1.0  -0.7375
  O  O171  1  0.872900  0.431500  0.859540  1.0  -0.7624
  O  O172  1  0.931500  0.546200  0.789530  1.0  -0.8271
  O  O173  1  0.964400  0.336500  0.792740  1.0  -0.5237
  O  O174  1  0.831200  0.169900  0.895730  1.0  -0.7816
  O  O175  1  0.933000  0.001500  0.921890  1.0  -0.8859
  O  O176  1  0.886300  0.108900  0.004550  1.0  -0.9269
  O  O177  1  0.088100  0.233800  0.043190  1.0  -0.7644
  O  O178  1  0.025500  0.841600  0.865470  1.0  -0.7684
  O  O179  1  0.092600  0.725300  0.794910  1.0  -0.8505
  O  O180  1  0.259000  0.499400  0.932800  1.0  -0.7477
  O  O181  1  0.562400  0.958800  0.872290  1.0  -0.7687
  O  O182  1  0.637700  0.898500  0.991490  1.0  -0.7123
  O  O183  1  0.633600  0.180600  0.905010  1.0  -0.8293
  O  O184  1  0.501400  0.917100  0.045090  1.0  -0.8225
  O  O185  1  0.306500  0.882100  0.978290  1.0  -0.6995
  O  O186  1  0.476400  0.802200  0.949180  1.0  -0.8011
  O  O187  1  0.703800  0.348700  0.865250  1.0  -0.7375
  O  O188  1  0.372900  0.931500  0.859540  1.0  -0.7629
  O  O189  1  0.431500  0.046200  0.789530  1.0  -0.8271
  O  O190  1  0.464400  0.836500  0.792740  1.0  -0.5237
  O  O191  1  0.331200  0.669900  0.895730  1.0  -0.7813
  O  O192  1  0.433000  0.501500  0.921890  1.0  -0.8859
  O  O193  1  0.386300  0.608900  0.004550  1.0  -0.9269
  O  O194  1  0.588100  0.733800  0.043190  1.0  -0.7644
  O  O195  1  0.525500  0.341600  0.865470  1.0  -0.7684
  O  O196  1  0.592600  0.225300  0.794910  1.0  -0.8505
