# generated using pymatgen
data_Ga3P3O12F
_symmetry_space_group_name_H-M   'P 1'
_cell_length_a   9.31280000
_cell_length_b   9.32270000
_cell_length_c   9.34970000
_cell_angle_alpha   103.17000000
_cell_angle_beta   93.60000000
_cell_angle_gamma   90.14000000
_symmetry_Int_Tables_number   1
_chemical_formula_structural   Ga3P3O12F
_chemical_formula_sum   'Ga6 P6 O24 F2'
_cell_volume   788.71797685
_cell_formula_units_Z   2
loop_
 _symmetry_equiv_pos_site_id
 _symmetry_equiv_pos_as_xyz
  1  'x, y, z'
loop_
 _atom_site_type_symbol
 _atom_site_label
 _atom_site_symmetry_multiplicity
 _atom_site_fract_x
 _atom_site_fract_y
 _atom_site_fract_z
 _atom_site_occupancy
 _atom_site_charge
  Ga  Ga1  1  0.434640  0.136980  0.589990  1.0  1.6147
  Ga  Ga2  1  0.841810  0.375140  0.576610  1.0  1.7076
  Ga  Ga3  1  0.613020  0.396250  0.164930  1.0  1.673
  Ga  Ga4  1  0.565360  0.863020  0.410010  1.0  1.6134
  Ga  Ga5  1  0.158190  0.624860  0.423390  1.0  1.7001
  Ga  Ga6  1  0.386980  0.603750  0.835070  1.0  1.6737
  P  P7  1  0.355460  0.833020  0.648340  1.0  1.8398
  P  P8  1  0.180780  0.375690  0.593850  1.0  2.0164
  P  P9  1  0.622550  0.376970  0.827980  1.0  2.0121
  P  P10  1  0.644540  0.166980  0.351660  1.0  1.8393
  P  P11  1  0.819220  0.624310  0.406150  1.0  2.0156
  P  P12  1  0.377450  0.623030  0.172020  1.0  2.0059
  O  O13  1  0.387700  0.784600  0.794700  1.0  -0.8259
  O  O14  1  0.463300  0.764700  0.536900  1.0  -0.799
  O  O15  1  0.203700  0.769800  0.586200  1.0  -0.8176
  O  O16  1  0.349600  0.999600  0.688400  1.0  -0.7332
  O  O17  1  0.259500  0.233100  0.563800  1.0  -0.8598
  O  O18  1  0.175200  0.440900  0.456400  1.0  -0.8809
  O  O19  1  0.027300  0.343400  0.628900  1.0  -0.9067
  O  O20  1  0.245900  0.488200  0.727000  1.0  -0.9555
  O  O21  1  0.503400  0.265500  0.770700  1.0  -0.8229
  O  O22  1  0.754500  0.353600  0.737400  1.0  -0.9746
  O  O23  1  0.567000  0.532600  0.835500  1.0  -0.849
  O  O24  1  0.678700  0.364100  0.981400  1.0  -0.8707
  O  O25  1  0.612300  0.215400  0.205300  1.0  -0.8244
  O  O26  1  0.536700  0.235300  0.463100  1.0  -0.7979
  O  O27  1  0.796300  0.230200  0.413800  1.0  -0.8213
  O  O28  1  0.650400  0.000400  0.311600  1.0  -0.733
  O  O29  1  0.740500  0.766900  0.436200  1.0  -0.8586
  O  O30  1  0.824800  0.559100  0.543600  1.0  -0.8793
  O  O31  1  0.972700  0.656600  0.371100  1.0  -0.9058
  O  O32  1  0.754100  0.511800  0.273000  1.0  -0.9544
  O  O33  1  0.496600  0.734500  0.229300  1.0  -0.8219
  O  O34  1  0.245500  0.646400  0.262600  1.0  -0.9744
  O  O35  1  0.433000  0.467400  0.164500  1.0  -0.8498
  O  O36  1  0.321300  0.635900  0.018600  1.0  -0.8683
  F  F37  1  0.390000  0.983000  0.409300  1.0  -0.5646
  F  F38  1  0.610000  0.017000  0.590700  1.0  -0.5622
