# generated using pymatgen
data_La2H12(C4O5)3
_symmetry_space_group_name_H-M   'P 1'
_cell_length_a   9.50700000
_cell_length_b   9.50700000
_cell_length_c   17.44300000
_cell_angle_alpha   90.00000000
_cell_angle_beta   90.00000000
_cell_angle_gamma   120.00000000
_symmetry_Int_Tables_number   1
_chemical_formula_structural   La2H12(C4O5)3
_chemical_formula_sum   'La4 H24 C24 O30'
_cell_volume   1365.33366991
_cell_formula_units_Z   2
loop_
 _symmetry_equiv_pos_site_id
 _symmetry_equiv_pos_as_xyz
  1  'x, y, z'
loop_
 _atom_site_type_symbol
 _atom_site_label
 _atom_site_symmetry_multiplicity
 _atom_site_fract_x
 _atom_site_fract_y
 _atom_site_fract_z
 _atom_site_occupancy
 _atom_site_charge
  La  La1  1  0.666667  0.333333  0.250000  1.0  2.2579
  La  La2  1  0.333333  0.666667  0.750000  1.0  2.2579
  La  La3  1  0.000000  0.000000  0.000000  1.0  2.0576
  La  La4  1  0.000000  0.000000  0.500000  1.0  2.0576
  H  H5  1  0.430700  0.027900  0.081000  1.0  0.1129
  H  H6  1  0.494700  0.169700  0.022700  1.0  0.0993
  H  H7  1  0.972100  0.402800  0.081000  1.0  0.1122
  H  H8  1  0.830300  0.325000  0.022700  1.0  0.0973
  H  H9  1  0.597200  0.569300  0.081000  1.0  0.1125
  H  H10  1  0.675000  0.505300  0.022700  1.0  0.0993
  H  H11  1  0.430700  0.027900  0.419000  1.0  0.1121
  H  H12  1  0.494700  0.169700  0.477300  1.0  0.099
  H  H13  1  0.972100  0.402800  0.419000  1.0  0.1125
  H  H14  1  0.830300  0.325000  0.477300  1.0  0.0971
  H  H15  1  0.597200  0.569300  0.419000  1.0  0.1119
  H  H16  1  0.675000  0.505300  0.477300  1.0  0.1001
  H  H17  1  0.027900  0.430700  0.919000  1.0  0.1121
  H  H18  1  0.169700  0.494700  0.977300  1.0  0.0991
  H  H19  1  0.402800  0.972100  0.919000  1.0  0.1127
  H  H20  1  0.325000  0.830300  0.977300  1.0  0.0998
  H  H21  1  0.569300  0.597200  0.919000  1.0  0.1124
  H  H22  1  0.505300  0.675000  0.977300  1.0  0.0973
  H  H23  1  0.027900  0.430700  0.581000  1.0  0.1129
  H  H24  1  0.169700  0.494700  0.522700  1.0  0.0994
  H  H25  1  0.402800  0.972100  0.581000  1.0  0.1129
  H  H26  1  0.325000  0.830300  0.522700  1.0  0.0992
  H  H27  1  0.569300  0.597200  0.581000  1.0  0.113
  H  H28  1  0.505300  0.675000  0.522700  1.0  0.0973
  C  C29  1  0.350100  0.185000  0.104600  1.0  0.7733
  C  C30  1  0.400900  0.094100  0.051400  1.0  -0.0732
  C  C31  1  0.815000  0.165100  0.104600  1.0  0.7731
  C  C32  1  0.905900  0.306800  0.051400  1.0  -0.0732
  C  C33  1  0.834900  0.649900  0.104600  1.0  0.7731
  C  C34  1  0.693200  0.599100  0.051400  1.0  -0.0734
  C  C35  1  0.350100  0.185000  0.395400  1.0  0.7737
  C  C36  1  0.400900  0.094100  0.448600  1.0  -0.0721
  C  C37  1  0.815000  0.165100  0.395400  1.0  0.7713
  C  C38  1  0.905900  0.306800  0.448600  1.0  -0.073
  C  C39  1  0.834900  0.649900  0.395400  1.0  0.7722
  C  C40  1  0.693200  0.599100  0.448600  1.0  -0.0728
  C  C41  1  0.185000  0.350100  0.895400  1.0  0.7711
  C  C42  1  0.094100  0.400900  0.948600  1.0  -0.0722
  C  C43  1  0.165100  0.815000  0.895400  1.0  0.7735
  C  C44  1  0.306800  0.905900  0.948600  1.0  -0.0722
  C  C45  1  0.649900  0.834900  0.895400  1.0  0.7731
  C  C46  1  0.599100  0.693200  0.948600  1.0  -0.0733
  C  C47  1  0.185000  0.350100  0.604600  1.0  0.7733
  C  C48  1  0.094100  0.400900  0.551400  1.0  -0.0727
  C  C49  1  0.165100  0.815000  0.604600  1.0  0.7732
  C  C50  1  0.306800  0.905900  0.551400  1.0  -0.0732
  C  C51  1  0.649900  0.834900  0.604600  1.0  0.7729
  C  C52  1  0.599100  0.693200  0.551400  1.0  -0.0736
  O  O53  1  0.450000  0.270500  0.154900  1.0  -0.7941
  O  O54  1  0.214600  0.172800  0.095300  1.0  -0.6709
  O  O55  1  0.729500  0.179500  0.154900  1.0  -0.789
  O  O56  1  0.827200  0.041800  0.095300  1.0  -0.6665
  O  O57  1  0.820500  0.550000  0.154900  1.0  -0.7892
  O  O58  1  0.958200  0.785400  0.095300  1.0  -0.6679
  O  O59  1  0.450000  0.270500  0.345100  1.0  -0.7928
  O  O60  1  0.214600  0.172800  0.404700  1.0  -0.6679
  O  O61  1  0.729500  0.179500  0.345100  1.0  -0.7884
  O  O62  1  0.827200  0.041800  0.404700  1.0  -0.6645
  O  O63  1  0.820500  0.550000  0.345100  1.0  -0.7897
  O  O64  1  0.958200  0.785400  0.404700  1.0  -0.6665
  O  O65  1  0.270500  0.450000  0.845100  1.0  -0.7886
  O  O66  1  0.172800  0.214600  0.904700  1.0  -0.6662
  O  O67  1  0.179500  0.729500  0.845100  1.0  -0.7931
  O  O68  1  0.041800  0.827200  0.904700  1.0  -0.6683
  O  O69  1  0.550000  0.820500  0.845100  1.0  -0.7886
  O  O70  1  0.785400  0.958200  0.904700  1.0  -0.6652
  O  O71  1  0.270500  0.450000  0.654900  1.0  -0.7883
  O  O72  1  0.172800  0.214600  0.595300  1.0  -0.6683
  O  O73  1  0.179500  0.729500  0.654900  1.0  -0.794
  O  O74  1  0.041800  0.827200  0.595300  1.0  -0.6711
  O  O75  1  0.550000  0.820500  0.654900  1.0  -0.7893
  O  O76  1  0.785400  0.958200  0.595300  1.0  -0.6668
  O  O77  1  0.271600  0.000000  0.000000  1.0  -0.3424
  O  O78  1  0.000000  0.271600  0.000000  1.0  -0.3466
  O  O79  1  0.728400  0.728400  0.000000  1.0  -0.3455
  O  O80  1  0.271600  0.000000  0.500000  1.0  -0.3424
  O  O81  1  0.000000  0.271600  0.500000  1.0  -0.3466
  O  O82  1  0.728400  0.728400  0.500000  1.0  -0.3455
