# generated using pymatgen
data_InH4(C3O2)4
_symmetry_space_group_name_H-M   'P 1'
_cell_length_a   20.40310000
_cell_length_b   20.40310000
_cell_length_c   20.40310000
_cell_angle_alpha   90.00000000
_cell_angle_beta   90.00000000
_cell_angle_gamma   90.00000000
_symmetry_Int_Tables_number   1
_chemical_formula_structural   InH4(C3O2)4
_chemical_formula_sum   'In12 H48 C144 O96'
_cell_volume   8493.53487616
_cell_formula_units_Z   12
loop_
 _symmetry_equiv_pos_site_id
 _symmetry_equiv_pos_as_xyz
  1  'x, y, z'
loop_
 _atom_site_type_symbol
 _atom_site_label
 _atom_site_symmetry_multiplicity
 _atom_site_fract_x
 _atom_site_fract_y
 _atom_site_fract_z
 _atom_site_occupancy
 _atom_site_charge
  In  In1  1  0.625000  0.000000  0.750000  1.0  1.4731
  In  In2  1  0.875000  0.000000  0.250000  1.0  1.4731
  In  In3  1  0.375000  0.500000  0.750000  1.0  1.4731
  In  In4  1  0.125000  0.500000  0.250000  1.0  1.4731
  In  In5  1  0.750000  0.625000  0.000000  1.0  1.4731
  In  In6  1  0.250000  0.875000  0.000000  1.0  1.4731
  In  In7  1  0.750000  0.375000  0.500000  1.0  1.4731
  In  In8  1  0.250000  0.125000  0.500000  1.0  1.4731
  In  In9  1  0.000000  0.750000  0.625000  1.0  1.4731
  In  In10  1  0.000000  0.250000  0.875000  1.0  1.4731
  In  In11  1  0.500000  0.750000  0.375000  1.0  1.4731
  In  In12  1  0.500000  0.250000  0.125000  1.0  1.4731
  H  H13  1  0.435400  0.046700  0.609100  1.0  0.1285
  H  H14  1  0.935400  0.546700  0.109100  1.0  0.1285
  H  H15  1  0.064600  0.953300  0.109100  1.0  0.128
  H  H16  1  0.564600  0.453300  0.609100  1.0  0.128
  H  H17  1  0.564600  0.546700  0.890900  1.0  0.128
  H  H18  1  0.064600  0.046700  0.390900  1.0  0.128
  H  H19  1  0.935400  0.453300  0.390900  1.0  0.1275
  H  H20  1  0.435400  0.953300  0.890900  1.0  0.1275
  H  H21  1  0.609100  0.435400  0.046700  1.0  0.1281
  H  H22  1  0.109100  0.935400  0.546700  1.0  0.1281
  H  H23  1  0.109100  0.064600  0.953300  1.0  0.128
  H  H24  1  0.609100  0.564600  0.453300  1.0  0.128
  H  H25  1  0.890900  0.564600  0.546700  1.0  0.1285
  H  H26  1  0.390900  0.064600  0.046700  1.0  0.1285
  H  H27  1  0.390900  0.935400  0.453300  1.0  0.128
  H  H28  1  0.890900  0.435400  0.953300  1.0  0.128
  H  H29  1  0.046700  0.609100  0.435400  1.0  0.128
  H  H30  1  0.546700  0.109100  0.935400  1.0  0.128
  H  H31  1  0.953300  0.109100  0.064600  1.0  0.1279
  H  H32  1  0.453300  0.609100  0.564600  1.0  0.1279
  H  H33  1  0.546700  0.890900  0.564600  1.0  0.1278
  H  H34  1  0.046700  0.390900  0.064600  1.0  0.1278
  H  H35  1  0.453300  0.390900  0.935400  1.0  0.1274
  H  H36  1  0.953300  0.890900  0.435400  1.0  0.1274
  H  H37  1  0.296700  0.685400  0.859100  1.0  0.128
  H  H38  1  0.796700  0.185400  0.359100  1.0  0.128
  H  H39  1  0.203300  0.314600  0.359100  1.0  0.128
  H  H40  1  0.703300  0.814600  0.859100  1.0  0.128
  H  H41  1  0.796700  0.814600  0.140900  1.0  0.1279
  H  H42  1  0.296700  0.314600  0.640900  1.0  0.1279
  H  H43  1  0.703300  0.185400  0.640900  1.0  0.1275
  H  H44  1  0.203300  0.685400  0.140900  1.0  0.1275
  H  H45  1  0.685400  0.859100  0.296700  1.0  0.1285
  H  H46  1  0.185400  0.359100  0.796700  1.0  0.1285
  H  H47  1  0.314600  0.359100  0.203300  1.0  0.1281
  H  H48  1  0.814600  0.859100  0.703300  1.0  0.1281
  H  H49  1  0.814600  0.140900  0.796700  1.0  0.1282
  H  H50  1  0.314600  0.640900  0.296700  1.0  0.1282
  H  H51  1  0.185400  0.640900  0.703300  1.0  0.128
  H  H52  1  0.685400  0.140900  0.203300  1.0  0.128
  H  H53  1  0.859100  0.296700  0.685400  1.0  0.1277
  H  H54  1  0.359100  0.796700  0.185400  1.0  0.1277
  H  H55  1  0.359100  0.203300  0.314600  1.0  0.1277
  H  H56  1  0.859100  0.703300  0.814600  1.0  0.1277
  H  H57  1  0.140900  0.796700  0.814600  1.0  0.1281
  H  H58  1  0.640900  0.296700  0.314600  1.0  0.1281
  H  H59  1  0.640900  0.703300  0.185400  1.0  0.1271
  H  H60  1  0.140900  0.203300  0.685400  1.0  0.1271
  C  C61  1  0.539300  0.985200  0.654800  1.0  0.6875
  C  C62  1  0.495500  0.969100  0.598300  1.0  -0.1597
  C  C63  1  0.443100  0.009700  0.583600  1.0  0.0575
  C  C64  1  0.039300  0.485200  0.154800  1.0  0.6875
  C  C65  1  0.995500  0.469100  0.098300  1.0  -0.1597
  C  C66  1  0.943100  0.509700  0.083600  1.0  0.0575
  C  C67  1  0.960700  0.014800  0.154800  1.0  0.6875
  C  C68  1  0.004500  0.030900  0.098300  1.0  -0.1592
  C  C69  1  0.056900  0.990300  0.083600  1.0  0.0581
  C  C70  1  0.460700  0.514800  0.654800  1.0  0.6875
  C  C71  1  0.504500  0.530900  0.598300  1.0  -0.1592
  C  C72  1  0.556900  0.490300  0.583600  1.0  0.0581
  C  C73  1  0.460700  0.485200  0.845200  1.0  0.6872
  C  C74  1  0.504500  0.469100  0.901700  1.0  -0.1575
  C  C75  1  0.556900  0.509700  0.916400  1.0  0.0576
  C  C76  1  0.960700  0.985200  0.345200  1.0  0.6872
  C  C77  1  0.004500  0.969100  0.401700  1.0  -0.1575
  C  C78  1  0.056900  0.009700  0.416400  1.0  0.0576
  C  C79  1  0.039300  0.514800  0.345200  1.0  0.6869
  C  C80  1  0.995500  0.530900  0.401700  1.0  -0.1574
  C  C81  1  0.943100  0.490300  0.416400  1.0  0.0571
  C  C82  1  0.539300  0.014800  0.845200  1.0  0.6869
  C  C83  1  0.495500  0.030900  0.901700  1.0  -0.1574
  C  C84  1  0.443100  0.990300  0.916400  1.0  0.0571
  C  C85  1  0.654800  0.539300  0.985200  1.0  0.6845
  C  C86  1  0.598300  0.495500  0.969100  1.0  -0.1574
  C  C87  1  0.583600  0.443100  0.009700  1.0  0.0576
  C  C88  1  0.154800  0.039300  0.485200  1.0  0.6845
  C  C89  1  0.098300  0.995500  0.469100  1.0  -0.1574
  C  C90  1  0.083600  0.943100  0.509700  1.0  0.0576
  C  C91  1  0.154800  0.960700  0.014800  1.0  0.6843
  C  C92  1  0.098300  0.004500  0.030900  1.0  -0.1573
  C  C93  1  0.083600  0.056900  0.990300  1.0  0.0558
  C  C94  1  0.654800  0.460700  0.514800  1.0  0.6843
  C  C95  1  0.598300  0.504500  0.530900  1.0  -0.1573
  C  C96  1  0.583600  0.556900  0.490300  1.0  0.0558
  C  C97  1  0.845200  0.460700  0.485200  1.0  0.6838
  C  C98  1  0.901700  0.504500  0.469100  1.0  -0.1573
  C  C99  1  0.916400  0.556900  0.509700  1.0  0.0563
  C  C100  1  0.345200  0.960700  0.985200  1.0  0.6838
  C  C101  1  0.401700  0.004500  0.969100  1.0  -0.1573
  C  C102  1  0.416400  0.056900  0.009700  1.0  0.0563
  C  C103  1  0.345200  0.039300  0.514800  1.0  0.6837
  C  C104  1  0.401700  0.995500  0.530900  1.0  -0.1572
  C  C105  1  0.416400  0.943100  0.490300  1.0  0.0556
  C  C106  1  0.845200  0.539300  0.014800  1.0  0.6837
  C  C107  1  0.901700  0.495500  0.030900  1.0  -0.1572
  C  C108  1  0.916400  0.443100  0.990300  1.0  0.0556
  C  C109  1  0.985200  0.654800  0.539300  1.0  0.6868
  C  C110  1  0.969100  0.598300  0.495500  1.0  -0.1568
  C  C111  1  0.009700  0.583600  0.443100  1.0  0.0583
  C  C112  1  0.485200  0.154800  0.039300  1.0  0.6868
  C  C113  1  0.469100  0.098300  0.995500  1.0  -0.1568
  C  C114  1  0.509700  0.083600  0.943100  1.0  0.0583
  C  C115  1  0.014800  0.154800  0.960700  1.0  0.6862
  C  C116  1  0.030900  0.098300  0.004500  1.0  -0.1566
  C  C117  1  0.990300  0.083600  0.056900  1.0  0.0587
  C  C118  1  0.514800  0.654800  0.460700  1.0  0.6862
  C  C119  1  0.530900  0.598300  0.504500  1.0  -0.1566
  C  C120  1  0.490300  0.583600  0.556900  1.0  0.0587
  C  C121  1  0.485200  0.845200  0.460700  1.0  0.6874
  C  C122  1  0.469100  0.901700  0.504500  1.0  -0.1576
  C  C123  1  0.509700  0.916400  0.556900  1.0  0.0585
  C  C124  1  0.985200  0.345200  0.960700  1.0  0.6874
  C  C125  1  0.969100  0.401700  0.004500  1.0  -0.1576
  C  C126  1  0.009700  0.416400  0.056900  1.0  0.0585
  C  C127  1  0.514800  0.345200  0.039300  1.0  0.6871
  C  C128  1  0.530900  0.401700  0.995500  1.0  -0.1574
  C  C129  1  0.490300  0.416400  0.943100  1.0  0.0582
  C  C130  1  0.014800  0.845200  0.539300  1.0  0.6871
  C  C131  1  0.030900  0.901700  0.495500  1.0  -0.1574
  C  C132  1  0.990300  0.916400  0.443100  1.0  0.0582
  C  C133  1  0.235200  0.789300  0.904800  1.0  0.6879
  C  C134  1  0.219100  0.745500  0.848300  1.0  -0.1595
  C  C135  1  0.259700  0.693100  0.833600  1.0  0.0566
  C  C136  1  0.735200  0.289300  0.404800  1.0  0.6879
  C  C137  1  0.719100  0.245500  0.348300  1.0  -0.1595
  C  C138  1  0.759700  0.193100  0.333600  1.0  0.0566
  C  C139  1  0.264800  0.210700  0.404800  1.0  0.6875
  C  C140  1  0.280900  0.254500  0.348300  1.0  -0.159
  C  C141  1  0.240300  0.306900  0.333600  1.0  0.0562
  C  C142  1  0.764800  0.710700  0.904800  1.0  0.6875
  C  C143  1  0.780900  0.754500  0.848300  1.0  -0.159
  C  C144  1  0.740300  0.806900  0.833600  1.0  0.0562
  C  C145  1  0.735200  0.710700  0.095200  1.0  0.6873
  C  C146  1  0.719100  0.754500  0.151700  1.0  -0.1579
  C  C147  1  0.759700  0.806900  0.166400  1.0  0.0561
  C  C148  1  0.235200  0.210700  0.595200  1.0  0.6873
  C  C149  1  0.219100  0.254500  0.651700  1.0  -0.1579
  C  C150  1  0.259700  0.306900  0.666400  1.0  0.0561
  C  C151  1  0.764800  0.289300  0.595200  1.0  0.6871
  C  C152  1  0.780900  0.245500  0.651700  1.0  -0.1575
  C  C153  1  0.740300  0.193100  0.666400  1.0  0.0559
  C  C154  1  0.264800  0.789300  0.095200  1.0  0.6871
  C  C155  1  0.280900  0.745500  0.151700  1.0  -0.1575
  C  C156  1  0.240300  0.693100  0.166400  1.0  0.0559
  C  C157  1  0.789300  0.904800  0.235200  1.0  0.6861
  C  C158  1  0.745500  0.848300  0.219100  1.0  -0.1571
  C  C159  1  0.693100  0.833600  0.259700  1.0  0.0579
  C  C160  1  0.289300  0.404800  0.735200  1.0  0.6861
  C  C161  1  0.245500  0.348300  0.719100  1.0  -0.1571
  C  C162  1  0.193100  0.333600  0.759700  1.0  0.0579
  C  C163  1  0.210700  0.404800  0.264800  1.0  0.6861
  C  C164  1  0.254500  0.348300  0.280900  1.0  -0.1571
  C  C165  1  0.306900  0.333600  0.240300  1.0  0.0568
  C  C166  1  0.710700  0.904800  0.764800  1.0  0.6861
  C  C167  1  0.754500  0.848300  0.780900  1.0  -0.1571
  C  C168  1  0.806900  0.833600  0.740300  1.0  0.0568
  C  C169  1  0.710700  0.095200  0.735200  1.0  0.6869
  C  C170  1  0.754500  0.151700  0.719100  1.0  -0.158
  C  C171  1  0.806900  0.166400  0.759700  1.0  0.0585
  C  C172  1  0.210700  0.595200  0.235200  1.0  0.6869
  C  C173  1  0.254500  0.651700  0.219100  1.0  -0.158
  C  C174  1  0.306900  0.666400  0.259700  1.0  0.0585
  C  C175  1  0.289300  0.595200  0.764800  1.0  0.6867
  C  C176  1  0.245500  0.651700  0.780900  1.0  -0.1575
  C  C177  1  0.193100  0.666400  0.740300  1.0  0.0567
  C  C178  1  0.789300  0.095200  0.264800  1.0  0.6867
  C  C179  1  0.745500  0.151700  0.280900  1.0  -0.1575
  C  C180  1  0.693100  0.166400  0.240300  1.0  0.0567
  C  C181  1  0.904800  0.235200  0.789300  1.0  0.6848
  C  C182  1  0.848300  0.219100  0.745500  1.0  -0.1571
  C  C183  1  0.833600  0.259700  0.693100  1.0  0.0592
  C  C184  1  0.404800  0.735200  0.289300  1.0  0.6848
  C  C185  1  0.348300  0.719100  0.245500  1.0  -0.1571
  C  C186  1  0.333600  0.759700  0.193100  1.0  0.0592
  C  C187  1  0.404800  0.264800  0.210700  1.0  0.6847
  C  C188  1  0.348300  0.280900  0.254500  1.0  -0.1571
  C  C189  1  0.333600  0.240300  0.306900  1.0  0.0589
  C  C190  1  0.904800  0.764800  0.710700  1.0  0.6847
  C  C191  1  0.848300  0.780900  0.754500  1.0  -0.1571
  C  C192  1  0.833600  0.740300  0.806900  1.0  0.0589
  C  C193  1  0.095200  0.735200  0.710700  1.0  0.6841
  C  C194  1  0.151700  0.719100  0.754500  1.0  -0.1569
  C  C195  1  0.166400  0.759700  0.806900  1.0  0.0583
  C  C196  1  0.595200  0.235200  0.210700  1.0  0.6841
  C  C197  1  0.651700  0.219100  0.254500  1.0  -0.1569
  C  C198  1  0.666400  0.259700  0.306900  1.0  0.0583
  C  C199  1  0.595200  0.764800  0.289300  1.0  0.6841
  C  C200  1  0.651700  0.780900  0.245500  1.0  -0.1568
  C  C201  1  0.666400  0.740300  0.193100  1.0  0.0583
  C  C202  1  0.095200  0.264800  0.789300  1.0  0.6841
  C  C203  1  0.151700  0.280900  0.745500  1.0  -0.1568
  C  C204  1  0.166400  0.240300  0.693100  1.0  0.0583
  O  O205  1  0.585900  0.946000  0.667800  1.0  -0.5284
  O  O206  1  0.531900  0.036400  0.686500  1.0  -0.552
  O  O207  1  0.085900  0.446000  0.167800  1.0  -0.5284
  O  O208  1  0.031900  0.536400  0.186500  1.0  -0.552
  O  O209  1  0.914100  0.054000  0.167800  1.0  -0.5303
  O  O210  1  0.968100  0.963600  0.186500  1.0  -0.5538
  O  O211  1  0.414100  0.554000  0.667800  1.0  -0.5303
  O  O212  1  0.468100  0.463600  0.686500  1.0  -0.5538
  O  O213  1  0.414100  0.446000  0.832200  1.0  -0.5287
  O  O214  1  0.468100  0.536400  0.813500  1.0  -0.5523
  O  O215  1  0.914100  0.946000  0.332200  1.0  -0.5287
  O  O216  1  0.968100  0.036400  0.313500  1.0  -0.5523
  O  O217  1  0.085900  0.554000  0.332200  1.0  -0.5288
  O  O218  1  0.031900  0.463600  0.313500  1.0  -0.5526
  O  O219  1  0.585900  0.054000  0.832200  1.0  -0.5288
  O  O220  1  0.531900  0.963600  0.813500  1.0  -0.5526
  O  O221  1  0.667800  0.585900  0.946000  1.0  -0.5295
  O  O222  1  0.686500  0.531900  0.036400  1.0  -0.5532
  O  O223  1  0.167800  0.085900  0.446000  1.0  -0.5295
  O  O224  1  0.186500  0.031900  0.536400  1.0  -0.5532
  O  O225  1  0.167800  0.914100  0.054000  1.0  -0.5293
  O  O226  1  0.186500  0.968100  0.963600  1.0  -0.5527
  O  O227  1  0.667800  0.414100  0.554000  1.0  -0.5293
  O  O228  1  0.686500  0.468100  0.463600  1.0  -0.5527
  O  O229  1  0.832200  0.414100  0.446000  1.0  -0.5271
  O  O230  1  0.813500  0.468100  0.536400  1.0  -0.5517
  O  O231  1  0.332200  0.914100  0.946000  1.0  -0.5271
  O  O232  1  0.313500  0.968100  0.036400  1.0  -0.5517
  O  O233  1  0.332200  0.085900  0.554000  1.0  -0.5281
  O  O234  1  0.313500  0.031900  0.463600  1.0  -0.5523
  O  O235  1  0.832200  0.585900  0.054000  1.0  -0.5281
  O  O236  1  0.813500  0.531900  0.963600  1.0  -0.5523
  O  O237  1  0.946000  0.667800  0.585900  1.0  -0.5273
  O  O238  1  0.036400  0.686500  0.531900  1.0  -0.5559
  O  O239  1  0.446000  0.167800  0.085900  1.0  -0.5273
  O  O240  1  0.536400  0.186500  0.031900  1.0  -0.5559
  O  O241  1  0.054000  0.167800  0.914100  1.0  -0.5268
  O  O242  1  0.963600  0.186500  0.968100  1.0  -0.556
  O  O243  1  0.554000  0.667800  0.414100  1.0  -0.5268
  O  O244  1  0.463600  0.686500  0.468100  1.0  -0.556
  O  O245  1  0.446000  0.832200  0.414100  1.0  -0.5275
  O  O246  1  0.536400  0.813500  0.468100  1.0  -0.5576
  O  O247  1  0.946000  0.332200  0.914100  1.0  -0.5275
  O  O248  1  0.036400  0.313500  0.968100  1.0  -0.5576
  O  O249  1  0.554000  0.332200  0.085900  1.0  -0.5274
  O  O250  1  0.463600  0.313500  0.031900  1.0  -0.5565
  O  O251  1  0.054000  0.832200  0.585900  1.0  -0.5274
  O  O252  1  0.963600  0.813500  0.531900  1.0  -0.5565
  O  O253  1  0.196000  0.835900  0.917800  1.0  -0.528
  O  O254  1  0.286400  0.781900  0.936500  1.0  -0.5562
  O  O255  1  0.696000  0.335900  0.417800  1.0  -0.528
  O  O256  1  0.786400  0.281900  0.436500  1.0  -0.5562
  O  O257  1  0.304000  0.164100  0.417800  1.0  -0.5275
  O  O258  1  0.213600  0.218100  0.436500  1.0  -0.5553
  O  O259  1  0.804000  0.664100  0.917800  1.0  -0.5275
  O  O260  1  0.713600  0.718100  0.936500  1.0  -0.5553
  O  O261  1  0.696000  0.664100  0.082200  1.0  -0.5274
  O  O262  1  0.786400  0.718100  0.063500  1.0  -0.5552
  O  O263  1  0.196000  0.164100  0.582200  1.0  -0.5274
  O  O264  1  0.286400  0.218100  0.563500  1.0  -0.5552
  O  O265  1  0.804000  0.335900  0.582200  1.0  -0.5269
  O  O266  1  0.713600  0.281900  0.563500  1.0  -0.5551
  O  O267  1  0.304000  0.835900  0.082200  1.0  -0.5269
  O  O268  1  0.213600  0.781900  0.063500  1.0  -0.5551
  O  O269  1  0.835900  0.917800  0.196000  1.0  -0.5268
  O  O270  1  0.781900  0.936500  0.286400  1.0  -0.5545
  O  O271  1  0.335900  0.417800  0.696000  1.0  -0.5268
  O  O272  1  0.281900  0.436500  0.786400  1.0  -0.5545
  O  O273  1  0.164100  0.417800  0.304000  1.0  -0.528
  O  O274  1  0.218100  0.436500  0.213600  1.0  -0.5554
  O  O275  1  0.664100  0.917800  0.804000  1.0  -0.528
  O  O276  1  0.718100  0.936500  0.713600  1.0  -0.5554
  O  O277  1  0.664100  0.082200  0.696000  1.0  -0.5281
  O  O278  1  0.718100  0.063500  0.786400  1.0  -0.5558
  O  O279  1  0.164100  0.582200  0.196000  1.0  -0.5281
  O  O280  1  0.218100  0.563500  0.286400  1.0  -0.5558
  O  O281  1  0.335900  0.582200  0.804000  1.0  -0.5275
  O  O282  1  0.281900  0.563500  0.713600  1.0  -0.5551
  O  O283  1  0.835900  0.082200  0.304000  1.0  -0.5275
  O  O284  1  0.781900  0.063500  0.213600  1.0  -0.5551
  O  O285  1  0.917800  0.196000  0.835900  1.0  -0.5296
  O  O286  1  0.936500  0.286400  0.781900  1.0  -0.5507
  O  O287  1  0.417800  0.696000  0.335900  1.0  -0.5296
  O  O288  1  0.436500  0.786400  0.281900  1.0  -0.5507
  O  O289  1  0.417800  0.304000  0.164100  1.0  -0.5312
  O  O290  1  0.436500  0.213600  0.218100  1.0  -0.5517
  O  O291  1  0.917800  0.804000  0.664100  1.0  -0.5312
  O  O292  1  0.936500  0.713600  0.718100  1.0  -0.5517
  O  O293  1  0.082200  0.696000  0.664100  1.0  -0.5283
  O  O294  1  0.063500  0.786400  0.718100  1.0  -0.5502
  O  O295  1  0.582200  0.196000  0.164100  1.0  -0.5283
  O  O296  1  0.563500  0.286400  0.218100  1.0  -0.5502
  O  O297  1  0.582200  0.804000  0.335900  1.0  -0.5293
  O  O298  1  0.563500  0.713600  0.281900  1.0  -0.5512
  O  O299  1  0.082200  0.304000  0.835900  1.0  -0.5293
  O  O300  1  0.063500  0.213600  0.781900  1.0  -0.5512
