# generated using pymatgen
data_UH4(C2O)4
_symmetry_space_group_name_H-M   'P 1'
_cell_length_a   9.04800000
_cell_length_b   9.46500000
_cell_length_c   15.58400000
_cell_angle_alpha   90.00000000
_cell_angle_beta   90.79000000
_cell_angle_gamma   90.00000000
_symmetry_Int_Tables_number   1
_chemical_formula_structural   UH4(C2O)4
_chemical_formula_sum   'U4 H16 C32 O16'
_cell_volume   1334.47630303
_cell_formula_units_Z   4
loop_
 _symmetry_equiv_pos_site_id
 _symmetry_equiv_pos_as_xyz
  1  'x, y, z'
loop_
 _atom_site_type_symbol
 _atom_site_label
 _atom_site_symmetry_multiplicity
 _atom_site_fract_x
 _atom_site_fract_y
 _atom_site_fract_z
 _atom_site_occupancy
 _atom_site_charge
  U  U1  1  0.243130  0.505670  0.675340  1.0  1.8839
  U  U2  1  0.256870  0.005670  0.824660  1.0  1.8889
  U  U3  1  0.756870  0.494330  0.324660  1.0  1.889
  U  U4  1  0.743130  0.994330  0.175340  1.0  1.884
  H  H5  1  0.082800  0.396700  0.874200  1.0  0.0785
  H  H6  1  0.978800  0.258300  0.977600  1.0  0.0863
  H  H7  1  0.518800  0.398200  0.135300  1.0  0.0802
  H  H8  1  0.446000  0.259600  0.016700  1.0  0.0918
  H  H9  1  0.417200  0.896700  0.625800  1.0  0.0784
  H  H10  1  0.521200  0.758300  0.522400  1.0  0.0858
  H  H11  1  0.981200  0.898200  0.364700  1.0  0.0801
  H  H12  1  0.054000  0.759600  0.483300  1.0  0.0917
  H  H13  1  0.917200  0.603300  0.125800  1.0  0.0784
  H  H14  1  0.021200  0.741700  0.022400  1.0  0.0859
  H  H15  1  0.481200  0.601800  0.864700  1.0  0.0802
  H  H16  1  0.554000  0.740400  0.983300  1.0  0.0916
  H  H17  1  0.582800  0.103300  0.374200  1.0  0.0781
  H  H18  1  0.478800  0.241700  0.477600  1.0  0.0865
  H  H19  1  0.018800  0.101800  0.635300  1.0  0.0802
  H  H20  1  0.946000  0.240400  0.516700  1.0  0.0918
  C  C21  1  0.132900  0.673800  0.871800  1.0  0.6985
  C  C22  1  0.065300  0.586100  0.936400  1.0  -0.0919
  C  C23  1  0.049900  0.438100  0.924600  1.0  -0.0723
  C  C24  1  0.987000  0.355200  0.986600  1.0  -0.0727
  C  C25  1  0.511400  0.438900  0.081100  1.0  -0.0493
  C  C26  1  0.467200  0.355000  0.009700  1.0  -0.1109
  C  C27  1  0.456100  0.417400  0.929300  1.0  -0.1732
  C  C28  1  0.404800  0.333000  0.856700  1.0  0.7244
  C  C29  1  0.367100  0.173800  0.628200  1.0  0.6975
  C  C30  1  0.434700  0.086100  0.563600  1.0  -0.0925
  C  C31  1  0.450100  0.938100  0.575400  1.0  -0.0737
  C  C32  1  0.513000  0.855200  0.513400  1.0  -0.0718
  C  C33  1  0.988600  0.938900  0.418900  1.0  -0.0485
  C  C34  1  0.032800  0.855000  0.490300  1.0  -0.1096
  C  C35  1  0.043900  0.917400  0.570700  1.0  -0.1716
  C  C36  1  0.095200  0.833000  0.643300  1.0  0.7243
  C  C37  1  0.867100  0.326200  0.128200  1.0  0.6997
  C  C38  1  0.934700  0.413900  0.063600  1.0  -0.0933
  C  C39  1  0.950100  0.561900  0.075400  1.0  -0.0741
  C  C40  1  0.013000  0.644800  0.013400  1.0  -0.0714
  C  C41  1  0.488600  0.561100  0.918900  1.0  -0.0492
  C  C42  1  0.532800  0.645000  0.990300  1.0  -0.1084
  C  C43  1  0.543900  0.582600  0.070700  1.0  -0.1742
  C  C44  1  0.595200  0.667000  0.143300  1.0  0.7253
  C  C45  1  0.632900  0.826200  0.371800  1.0  0.6989
  C  C46  1  0.565300  0.913900  0.436400  1.0  -0.0932
  C  C47  1  0.549900  0.061900  0.424600  1.0  -0.0724
  C  C48  1  0.487000  0.144800  0.486600  1.0  -0.0716
  C  C49  1  0.011400  0.061100  0.581100  1.0  -0.0489
  C  C50  1  0.967200  0.145000  0.509700  1.0  -0.1102
  C  C51  1  0.956100  0.082600  0.429300  1.0  -0.1745
  C  C52  1  0.904800  0.167000  0.356700  1.0  0.7266
  O  O53  1  0.182000  0.618200  0.804900  1.0  -0.783
  O  O54  1  0.144100  0.804700  0.886100  1.0  -0.7628
  O  O55  1  0.376100  0.393800  0.786300  1.0  -0.7709
  O  O56  1  0.398500  0.203100  0.866400  1.0  -0.76
  O  O57  1  0.318000  0.118200  0.695100  1.0  -0.7854
  O  O58  1  0.355900  0.304700  0.613900  1.0  -0.761
  O  O59  1  0.123900  0.893800  0.713700  1.0  -0.7716
  O  O60  1  0.101500  0.703100  0.633600  1.0  -0.7597
  O  O61  1  0.818000  0.381800  0.195100  1.0  -0.7855
  O  O62  1  0.855900  0.195300  0.113900  1.0  -0.7622
  O  O63  1  0.623900  0.606200  0.213700  1.0  -0.7716
  O  O64  1  0.601500  0.796900  0.133600  1.0  -0.7582
  O  O65  1  0.682000  0.881800  0.304900  1.0  -0.783
  O  O66  1  0.644100  0.695300  0.386100  1.0  -0.7624
  O  O67  1  0.876100  0.106200  0.286300  1.0  -0.7709
  O  O68  1  0.898500  0.296900  0.366400  1.0  -0.7585
